<?xml version="1.0" encoding="UTF-8"?>

<!-- generated on 2025-08-19 23:16:59 by Eclipse SUMO duarouter Version 1.24.0
<duarouterConfiguration xmlns:xsi="http://www.w3.org/2001/XMLSchema-instance" xsi:noNamespaceSchemaLocation="http://sumo.dlr.de/xsd/duarouterConfiguration.xsd">

    <input>
        <net-file value="osm.net.xml.gz"/>
        <route-files value="osm.res_veh.trips.xml"/>
    </input>

    <output>
        <output-file value="osm.res_veh.rou.xml"/>
    </output>

    <report>
        <ignore-errors value="true"/>
    </report>

</duarouterConfiguration>
-->

<routes xmlns:xsi="http://www.w3.org/2001/XMLSchema-instance" xsi:noNamespaceSchemaLocation="http://sumo.dlr.de/xsd/routes_file.xsd">
    <vType id="res_veh_int0_passenger" vClass="passenger"/>
    <vehicle id="res_veh_int00" type="res_veh_int0_passenger" depart="0.00" departLane="best" departSpeed="max">
        <route edges="E31 E18.410"/>
    </vehicle>
    <vehicle id="res_veh_int01" type="res_veh_int0_passenger" depart="24.00" departLane="best" departSpeed="max">
        <route edges="E31 E18.410"/>
    </vehicle>
    <vehicle id="res_veh_int02" type="res_veh_int0_passenger" depart="48.00" departLane="best" departSpeed="max">
        <route edges="E31 E30.558"/>
    </vehicle>
    <vehicle id="res_veh_int03" type="res_veh_int0_passenger" depart="72.00" departLane="best" departSpeed="max">
        <route edges="E31 E18.410"/>
    </vehicle>
    <vehicle id="res_veh_int04" type="res_veh_int0_passenger" depart="96.00" departLane="best" departSpeed="max">
        <route edges="E31 E18.410"/>
    </vehicle>
    <vehicle id="res_veh_int05" type="res_veh_int0_passenger" depart="120.00" departLane="best" departSpeed="max">
        <route edges="E31 E30.558"/>
    </vehicle>
    <vehicle id="res_veh_int06" type="res_veh_int0_passenger" depart="144.00" departLane="best" departSpeed="max">
        <route edges="E18 E18.410"/>
    </vehicle>
    <vehicle id="res_veh_int07" type="res_veh_int0_passenger" depart="168.00" departLane="best" departSpeed="max">
        <route edges="E31 E30.558"/>
    </vehicle>
    <vehicle id="res_veh_int08" type="res_veh_int0_passenger" depart="192.00" departLane="best" departSpeed="max">
        <route edges="E31 E30.558"/>
    </vehicle>
    <vehicle id="res_veh_int09" type="res_veh_int0_passenger" depart="216.00" departLane="best" departSpeed="max">
        <route edges="E31 E18.410"/>
    </vehicle>
    <vehicle id="res_veh_int010" type="res_veh_int0_passenger" depart="240.00" departLane="best" departSpeed="max">
        <route edges="E31 E30.558"/>
    </vehicle>
    <vehicle id="res_veh_int011" type="res_veh_int0_passenger" depart="264.00" departLane="best" departSpeed="max">
        <route edges="E31 E18.410"/>
    </vehicle>
    <vehicle id="res_veh_int013" type="res_veh_int0_passenger" depart="312.00" departLane="best" departSpeed="max">
        <route edges="E18 E18.410"/>
    </vehicle>
    <vehicle id="res_veh_int014" type="res_veh_int0_passenger" depart="336.00" departLane="best" departSpeed="max">
        <route edges="E31 E30.558"/>
    </vehicle>
    <vehicle id="res_veh_int015" type="res_veh_int0_passenger" depart="360.00" departLane="best" departSpeed="max">
        <route edges="E31 E30.558"/>
    </vehicle>
    <vehicle id="res_veh_int016" type="res_veh_int0_passenger" depart="384.00" departLane="best" departSpeed="max">
        <route edges="E31 E31.622"/>
    </vehicle>
    <vehicle id="res_veh_int017" type="res_veh_int0_passenger" depart="408.00" departLane="best" departSpeed="max">
        <route edges="E31 E30.558"/>
    </vehicle>
    <vehicle id="res_veh_int018" type="res_veh_int0_passenger" depart="432.00" departLane="best" departSpeed="max">
        <route edges="E31 E30.558"/>
    </vehicle>
    <vehicle id="res_veh_int019" type="res_veh_int0_passenger" depart="456.00" departLane="best" departSpeed="max">
        <route edges="E31 E30.558"/>
    </vehicle>
    <vehicle id="res_veh_int020" type="res_veh_int0_passenger" depart="480.00" departLane="best" departSpeed="max">
        <route edges="E31 E18.410"/>
    </vehicle>
    <vehicle id="res_veh_int022" type="res_veh_int0_passenger" depart="528.00" departLane="best" departSpeed="max">
        <route edges="E18 E18.410"/>
    </vehicle>
    <vehicle id="res_veh_int023" type="res_veh_int0_passenger" depart="552.00" departLane="best" departSpeed="max">
        <route edges="E18 E22.488"/>
    </vehicle>
    <vehicle id="res_veh_int025" type="res_veh_int0_passenger" depart="600.00" departLane="best" departSpeed="max">
        <route edges="E31 E18.410"/>
    </vehicle>
    <vehicle id="res_veh_int026" type="res_veh_int0_passenger" depart="624.00" departLane="best" departSpeed="max">
        <route edges="E31 E31.622"/>
    </vehicle>
    <vehicle id="res_veh_int027" type="res_veh_int0_passenger" depart="648.00" departLane="best" departSpeed="max">
        <route edges="E31 E30.558"/>
    </vehicle>
    <vehicle id="res_veh_int029" type="res_veh_int0_passenger" depart="696.00" departLane="best" departSpeed="max">
        <route edges="E18 E22.488"/>
    </vehicle>
    <vehicle id="res_veh_int030" type="res_veh_int0_passenger" depart="720.00" departLane="best" departSpeed="max">
        <route edges="E31 E30.558"/>
    </vehicle>
    <vehicle id="res_veh_int031" type="res_veh_int0_passenger" depart="744.00" departLane="best" departSpeed="max">
        <route edges="E31 E30.558"/>
    </vehicle>
    <vehicle id="res_veh_int032" type="res_veh_int0_passenger" depart="768.00" departLane="best" departSpeed="max">
        <route edges="E31 E31.622"/>
    </vehicle>
    <vehicle id="res_veh_int033" type="res_veh_int0_passenger" depart="792.00" departLane="best" departSpeed="max">
        <route edges="E31 E18.410"/>
    </vehicle>
    <vehicle id="res_veh_int035" type="res_veh_int0_passenger" depart="840.00" departLane="best" departSpeed="max">
        <route edges="E18 E31.622"/>
    </vehicle>
    <vehicle id="res_veh_int039" type="res_veh_int0_passenger" depart="936.00" departLane="best" departSpeed="max">
        <route edges="E31 E18.410"/>
    </vehicle>
    <vehicle id="res_veh_int041" type="res_veh_int0_passenger" depart="984.00" departLane="best" departSpeed="max">
        <route edges="E31 E31.622"/>
    </vehicle>
    <vehicle id="res_veh_int042" type="res_veh_int0_passenger" depart="1008.00" departLane="best" departSpeed="max">
        <route edges="E31 E18.410"/>
    </vehicle>
    <vehicle id="res_veh_int043" type="res_veh_int0_passenger" depart="1032.00" departLane="best" departSpeed="max">
        <route edges="E31 E30.558"/>
    </vehicle>
    <vehicle id="res_veh_int044" type="res_veh_int0_passenger" depart="1056.00" departLane="best" departSpeed="max">
        <route edges="E18 E18.410"/>
    </vehicle>
    <vehicle id="res_veh_int047" type="res_veh_int0_passenger" depart="1128.00" departLane="best" departSpeed="max">
        <route edges="E18 E22.488"/>
    </vehicle>
    <vehicle id="res_veh_int048" type="res_veh_int0_passenger" depart="1152.00" departLane="best" departSpeed="max">
        <route edges="E31 E30.558"/>
    </vehicle>
    <vehicle id="res_veh_int049" type="res_veh_int0_passenger" depart="1176.00" departLane="best" departSpeed="max">
        <route edges="E31 E31.622"/>
    </vehicle>
    <vehicle id="res_veh_int051" type="res_veh_int0_passenger" depart="1224.00" departLane="best" departSpeed="max">
        <route edges="E31 E30.558"/>
    </vehicle>
    <vehicle id="res_veh_int052" type="res_veh_int0_passenger" depart="1248.00" departLane="best" departSpeed="max">
        <route edges="E31 E30.558"/>
    </vehicle>
    <vehicle id="res_veh_int053" type="res_veh_int0_passenger" depart="1272.00" departLane="best" departSpeed="max">
        <route edges="E18 E22.488"/>
    </vehicle>
    <vehicle id="res_veh_int054" type="res_veh_int0_passenger" depart="1296.00" departLane="best" departSpeed="max">
        <route edges="E31 E31.622"/>
    </vehicle>
    <vehicle id="res_veh_int056" type="res_veh_int0_passenger" depart="1344.00" departLane="best" departSpeed="max">
        <route edges="E31 E18.410"/>
    </vehicle>
    <vehicle id="res_veh_int057" type="res_veh_int0_passenger" depart="1368.00" departLane="best" departSpeed="max">
        <route edges="E31 E31.622"/>
    </vehicle>
    <vehicle id="res_veh_int058" type="res_veh_int0_passenger" depart="1392.00" departLane="best" departSpeed="max">
        <route edges="E31 E30.558"/>
    </vehicle>
    <vehicle id="res_veh_int059" type="res_veh_int0_passenger" depart="1416.00" departLane="best" departSpeed="max">
        <route edges="E31 E18.410"/>
    </vehicle>
    <vehicle id="res_veh_int060" type="res_veh_int0_passenger" depart="1440.00" departLane="best" departSpeed="max">
        <route edges="E31 E30.558"/>
    </vehicle>
    <vehicle id="res_veh_int061" type="res_veh_int0_passenger" depart="1464.00" departLane="best" departSpeed="max">
        <route edges="E31 E30.558"/>
    </vehicle>
    <vehicle id="res_veh_int062" type="res_veh_int0_passenger" depart="1488.00" departLane="best" departSpeed="max">
        <route edges="E18 E22.488"/>
    </vehicle>
    <vehicle id="res_veh_int063" type="res_veh_int0_passenger" depart="1512.00" departLane="best" departSpeed="max">
        <route edges="E18 E31.622"/>
    </vehicle>
    <vehicle id="res_veh_int064" type="res_veh_int0_passenger" depart="1536.00" departLane="best" departSpeed="max">
        <route edges="E31 E31.622"/>
    </vehicle>
    <vehicle id="res_veh_int065" type="res_veh_int0_passenger" depart="1560.00" departLane="best" departSpeed="max">
        <route edges="E31 E18.410"/>
    </vehicle>
    <vehicle id="res_veh_int066" type="res_veh_int0_passenger" depart="1584.00" departLane="best" departSpeed="max">
        <route edges="E31 E31.622"/>
    </vehicle>
    <vehicle id="res_veh_int067" type="res_veh_int0_passenger" depart="1608.00" departLane="best" departSpeed="max">
        <route edges="E18 E22.488"/>
    </vehicle>
    <vehicle id="res_veh_int068" type="res_veh_int0_passenger" depart="1632.00" departLane="best" departSpeed="max">
        <route edges="E18 E31.622"/>
    </vehicle>
    <vehicle id="res_veh_int069" type="res_veh_int0_passenger" depart="1656.00" departLane="best" departSpeed="max">
        <route edges="E31 E18.410"/>
    </vehicle>
    <vehicle id="res_veh_int070" type="res_veh_int0_passenger" depart="1680.00" departLane="best" departSpeed="max">
        <route edges="E31 E30.558"/>
    </vehicle>
    <vehicle id="res_veh_int071" type="res_veh_int0_passenger" depart="1704.00" departLane="best" departSpeed="max">
        <route edges="E31 E31.622"/>
    </vehicle>
    <vehicle id="res_veh_int072" type="res_veh_int0_passenger" depart="1728.00" departLane="best" departSpeed="max">
        <route edges="E31 E18.410"/>
    </vehicle>
    <vehicle id="res_veh_int073" type="res_veh_int0_passenger" depart="1752.00" departLane="best" departSpeed="max">
        <route edges="E31 E30.558"/>
    </vehicle>
    <vehicle id="res_veh_int074" type="res_veh_int0_passenger" depart="1776.00" departLane="best" departSpeed="max">
        <route edges="E18 E22.488"/>
    </vehicle>
    <vehicle id="res_veh_int075" type="res_veh_int0_passenger" depart="1800.00" departLane="best" departSpeed="max">
        <route edges="E31 E30.558"/>
    </vehicle>
    <vehicle id="res_veh_int076" type="res_veh_int0_passenger" depart="1824.00" departLane="best" departSpeed="max">
        <route edges="E31 E30.558"/>
    </vehicle>
    <vehicle id="res_veh_int077" type="res_veh_int0_passenger" depart="1848.00" departLane="best" departSpeed="max">
        <route edges="E18 E18.410"/>
    </vehicle>
    <vehicle id="res_veh_int078" type="res_veh_int0_passenger" depart="1872.00" departLane="best" departSpeed="max">
        <route edges="E31 E30.558"/>
    </vehicle>
    <vehicle id="res_veh_int079" type="res_veh_int0_passenger" depart="1896.00" departLane="best" departSpeed="max">
        <route edges="E31 E18.410"/>
    </vehicle>
    <vehicle id="res_veh_int081" type="res_veh_int0_passenger" depart="1944.00" departLane="best" departSpeed="max">
        <route edges="E31 E31.622"/>
    </vehicle>
    <vehicle id="res_veh_int082" type="res_veh_int0_passenger" depart="1968.00" departLane="best" departSpeed="max">
        <route edges="E31 E18.410"/>
    </vehicle>
    <vehicle id="res_veh_int083" type="res_veh_int0_passenger" depart="1992.00" departLane="best" departSpeed="max">
        <route edges="E31 E30.558"/>
    </vehicle>
    <vehicle id="res_veh_int084" type="res_veh_int0_passenger" depart="2016.00" departLane="best" departSpeed="max">
        <route edges="E31 E18.410"/>
    </vehicle>
    <vehicle id="res_veh_int085" type="res_veh_int0_passenger" depart="2040.00" departLane="best" departSpeed="max">
        <route edges="E31 E30.558"/>
    </vehicle>
    <vehicle id="res_veh_int086" type="res_veh_int0_passenger" depart="2064.00" departLane="best" departSpeed="max">
        <route edges="E31 E31.622"/>
    </vehicle>
    <vehicle id="res_veh_int087" type="res_veh_int0_passenger" depart="2088.00" departLane="best" departSpeed="max">
        <route edges="E31 E18.410"/>
    </vehicle>
    <vehicle id="res_veh_int088" type="res_veh_int0_passenger" depart="2112.00" departLane="best" departSpeed="max">
        <route edges="E18 E22.488"/>
    </vehicle>
    <vehicle id="res_veh_int090" type="res_veh_int0_passenger" depart="2160.00" departLane="best" departSpeed="max">
        <route edges="E31 E30.558"/>
    </vehicle>
    <vehicle id="res_veh_int091" type="res_veh_int0_passenger" depart="2184.00" departLane="best" departSpeed="max">
        <route edges="E31 E18.410"/>
    </vehicle>
    <vehicle id="res_veh_int093" type="res_veh_int0_passenger" depart="2232.00" departLane="best" departSpeed="max">
        <route edges="E31 E18.410"/>
    </vehicle>
    <vehicle id="res_veh_int094" type="res_veh_int0_passenger" depart="2256.00" departLane="best" departSpeed="max">
        <route edges="E18 E22.488"/>
    </vehicle>
    <vehicle id="res_veh_int096" type="res_veh_int0_passenger" depart="2304.00" departLane="best" departSpeed="max">
        <route edges="E31 E31.622"/>
    </vehicle>
    <vehicle id="res_veh_int097" type="res_veh_int0_passenger" depart="2328.00" departLane="best" departSpeed="max">
        <route edges="E31 E31.622"/>
    </vehicle>
    <vehicle id="res_veh_int098" type="res_veh_int0_passenger" depart="2352.00" departLane="best" departSpeed="max">
        <route edges="E31 E18.410"/>
    </vehicle>
    <vehicle id="res_veh_int099" type="res_veh_int0_passenger" depart="2376.00" departLane="best" departSpeed="max">
        <route edges="E31 E31.622"/>
    </vehicle>
    <vehicle id="res_veh_int0100" type="res_veh_int0_passenger" depart="2400.00" departLane="best" departSpeed="max">
        <route edges="E31 E31.622"/>
    </vehicle>
    <vehicle id="res_veh_int0101" type="res_veh_int0_passenger" depart="2424.00" departLane="best" departSpeed="max">
        <route edges="E31 E18.410"/>
    </vehicle>
    <vehicle id="res_veh_int0102" type="res_veh_int0_passenger" depart="2448.00" departLane="best" departSpeed="max">
        <route edges="E31 E18.410"/>
    </vehicle>
    <vehicle id="res_veh_int0103" type="res_veh_int0_passenger" depart="2472.00" departLane="best" departSpeed="max">
        <route edges="E31 E18.410"/>
    </vehicle>
    <vehicle id="res_veh_int0104" type="res_veh_int0_passenger" depart="2496.00" departLane="best" departSpeed="max">
        <route edges="E31 E31.622"/>
    </vehicle>
    <vehicle id="res_veh_int0105" type="res_veh_int0_passenger" depart="2520.00" departLane="best" departSpeed="max">
        <route edges="E31 E31.622"/>
    </vehicle>
    <vehicle id="res_veh_int0107" type="res_veh_int0_passenger" depart="2568.00" departLane="best" departSpeed="max">
        <route edges="E31 E31.622"/>
    </vehicle>
    <vehicle id="res_veh_int0108" type="res_veh_int0_passenger" depart="2592.00" departLane="best" departSpeed="max">
        <route edges="E31 E30.558"/>
    </vehicle>
    <vehicle id="res_veh_int0109" type="res_veh_int0_passenger" depart="2616.00" departLane="best" departSpeed="max">
        <route edges="E18 E22.488"/>
    </vehicle>
    <vehicle id="res_veh_int0110" type="res_veh_int0_passenger" depart="2640.00" departLane="best" departSpeed="max">
        <route edges="E31 E30.558"/>
    </vehicle>
    <vehicle id="res_veh_int0111" type="res_veh_int0_passenger" depart="2664.00" departLane="best" departSpeed="max">
        <route edges="E31 E30.558"/>
    </vehicle>
    <vehicle id="res_veh_int0113" type="res_veh_int0_passenger" depart="2712.00" departLane="best" departSpeed="max">
        <route edges="E31 E31.622"/>
    </vehicle>
    <vehicle id="res_veh_int0114" type="res_veh_int0_passenger" depart="2736.00" departLane="best" departSpeed="max">
        <route edges="E18 E31.622"/>
    </vehicle>
    <vehicle id="res_veh_int0115" type="res_veh_int0_passenger" depart="2760.00" departLane="best" departSpeed="max">
        <route edges="E18 E18.410"/>
    </vehicle>
    <vehicle id="res_veh_int0116" type="res_veh_int0_passenger" depart="2784.00" departLane="best" departSpeed="max">
        <route edges="E31 E30.558"/>
    </vehicle>
    <vehicle id="res_veh_int0117" type="res_veh_int0_passenger" depart="2808.00" departLane="best" departSpeed="max">
        <route edges="E31 E18.410"/>
    </vehicle>
    <vehicle id="res_veh_int0118" type="res_veh_int0_passenger" depart="2832.00" departLane="best" departSpeed="max">
        <route edges="E31 E18.410"/>
    </vehicle>
    <vehicle id="res_veh_int0119" type="res_veh_int0_passenger" depart="2856.00" departLane="best" departSpeed="max">
        <route edges="E31 E30.558"/>
    </vehicle>
    <vehicle id="res_veh_int0120" type="res_veh_int0_passenger" depart="2880.00" departLane="best" departSpeed="max">
        <route edges="E31 E30.558"/>
    </vehicle>
    <vehicle id="res_veh_int0121" type="res_veh_int0_passenger" depart="2904.00" departLane="best" departSpeed="max">
        <route edges="E31 E31.622"/>
    </vehicle>
    <vehicle id="res_veh_int0125" type="res_veh_int0_passenger" depart="3000.00" departLane="best" departSpeed="max">
        <route edges="E31 E31.622"/>
    </vehicle>
    <vehicle id="res_veh_int0126" type="res_veh_int0_passenger" depart="3024.00" departLane="best" departSpeed="max">
        <route edges="E18 E22.488"/>
    </vehicle>
    <vehicle id="res_veh_int0127" type="res_veh_int0_passenger" depart="3048.00" departLane="best" departSpeed="max">
        <route edges="E31 E31.622"/>
    </vehicle>
    <vehicle id="res_veh_int0128" type="res_veh_int0_passenger" depart="3072.00" departLane="best" departSpeed="max">
        <route edges="E18 E18.410"/>
    </vehicle>
    <vehicle id="res_veh_int0129" type="res_veh_int0_passenger" depart="3096.00" departLane="best" departSpeed="max">
        <route edges="E31 E31.622"/>
    </vehicle>
    <vehicle id="res_veh_int0130" type="res_veh_int0_passenger" depart="3120.00" departLane="best" departSpeed="max">
        <route edges="E31 E31.622"/>
    </vehicle>
    <vehicle id="res_veh_int0131" type="res_veh_int0_passenger" depart="3144.00" departLane="best" departSpeed="max">
        <route edges="E31 E18.410"/>
    </vehicle>
    <vehicle id="res_veh_int0132" type="res_veh_int0_passenger" depart="3168.00" departLane="best" departSpeed="max">
        <route edges="E31 E30.558"/>
    </vehicle>
    <vehicle id="res_veh_int0133" type="res_veh_int0_passenger" depart="3192.00" departLane="best" departSpeed="max">
        <route edges="E31 E31.622"/>
    </vehicle>
    <vehicle id="res_veh_int0134" type="res_veh_int0_passenger" depart="3216.00" departLane="best" departSpeed="max">
        <route edges="E31 E18.410"/>
    </vehicle>
    <vehicle id="res_veh_int0136" type="res_veh_int0_passenger" depart="3264.00" departLane="best" departSpeed="max">
        <route edges="E31 E31.622"/>
    </vehicle>
    <vehicle id="res_veh_int0137" type="res_veh_int0_passenger" depart="3288.00" departLane="best" departSpeed="max">
        <route edges="E18 E18.410"/>
    </vehicle>
    <vehicle id="res_veh_int0139" type="res_veh_int0_passenger" depart="3336.00" departLane="best" departSpeed="max">
        <route edges="E31 E30.558"/>
    </vehicle>
    <vehicle id="res_veh_int0140" type="res_veh_int0_passenger" depart="3360.00" departLane="best" departSpeed="max">
        <route edges="E31 E18.410"/>
    </vehicle>
    <vehicle id="res_veh_int0142" type="res_veh_int0_passenger" depart="3408.00" departLane="best" departSpeed="max">
        <route edges="E31 E31.622"/>
    </vehicle>
    <vehicle id="res_veh_int0143" type="res_veh_int0_passenger" depart="3432.00" departLane="best" departSpeed="max">
        <route edges="E31 E18.410"/>
    </vehicle>
    <vehicle id="res_veh_int0145" type="res_veh_int0_passenger" depart="3480.00" departLane="best" departSpeed="max">
        <route edges="E18 E31.622"/>
    </vehicle>
    <vehicle id="res_veh_int0147" type="res_veh_int0_passenger" depart="3528.00" departLane="best" departSpeed="max">
        <route edges="E31 E30.558"/>
    </vehicle>
    <vehicle id="res_veh_int0148" type="res_veh_int0_passenger" depart="3552.00" departLane="best" departSpeed="max">
        <route edges="E31 E18.410"/>
    </vehicle>
    <vehicle id="res_veh_int0149" type="res_veh_int0_passenger" depart="3576.00" departLane="best" departSpeed="max">
        <route edges="E18 E31.622"/>
    </vehicle>
    <vType id="res_veh_int1_passenger" vClass="passenger"/>
    <vehicle id="res_veh_int10" type="res_veh_int1_passenger" depart="3601.00" departLane="best" departSpeed="max">
        <route edges="E22 E18.410"/>
    </vehicle>
    <vehicle id="res_veh_int11" type="res_veh_int1_passenger" depart="3613.00" departLane="best" departSpeed="max">
        <route edges="E18 E18.410"/>
    </vehicle>
    <vehicle id="res_veh_int12" type="res_veh_int1_passenger" depart="3624.99" departLane="best" departSpeed="max">
        <route edges="E22 E30.558"/>
    </vehicle>
    <vehicle id="res_veh_int13" type="res_veh_int1_passenger" depart="3636.99" departLane="best" departSpeed="max">
        <route edges="E22 E18.410"/>
    </vehicle>
    <vehicle id="res_veh_int14" type="res_veh_int1_passenger" depart="3648.99" departLane="best" departSpeed="max">
        <route edges="E18 E18.410"/>
    </vehicle>
    <vehicle id="res_veh_int16" type="res_veh_int1_passenger" depart="3672.98" departLane="best" departSpeed="max">
        <route edges="E18 E18.410"/>
    </vehicle>
    <vehicle id="res_veh_int17" type="res_veh_int1_passenger" depart="3684.98" departLane="best" departSpeed="max">
        <route edges="E22 E30.558"/>
    </vehicle>
    <vehicle id="res_veh_int19" type="res_veh_int1_passenger" depart="3708.97" departLane="best" departSpeed="max">
        <route edges="E22 E18.410"/>
    </vehicle>
    <vehicle id="res_veh_int110" type="res_veh_int1_passenger" depart="3720.97" departLane="best" departSpeed="max">
        <route edges="E22 E30.558"/>
    </vehicle>
    <vehicle id="res_veh_int111" type="res_veh_int1_passenger" depart="3732.96" departLane="best" departSpeed="max">
        <route edges="E18 E18.410"/>
    </vehicle>
    <vehicle id="res_veh_int112" type="res_veh_int1_passenger" depart="3744.96" departLane="best" departSpeed="max">
        <route edges="E22 E22.488"/>
    </vehicle>
    <vehicle id="res_veh_int113" type="res_veh_int1_passenger" depart="3756.96" departLane="best" departSpeed="max">
        <route edges="E18 E18.410"/>
    </vehicle>
    <vehicle id="res_veh_int114" type="res_veh_int1_passenger" depart="3768.95" departLane="best" departSpeed="max">
        <route edges="E22 E30.558"/>
    </vehicle>
    <vehicle id="res_veh_int115" type="res_veh_int1_passenger" depart="3780.95" departLane="best" departSpeed="max">
        <route edges="E22 E30.558"/>
    </vehicle>
    <vehicle id="res_veh_int116" type="res_veh_int1_passenger" depart="3792.95" departLane="best" departSpeed="max">
        <route edges="E18 E31.622"/>
    </vehicle>
    <vehicle id="res_veh_int118" type="res_veh_int1_passenger" depart="3816.94" departLane="best" departSpeed="max">
        <route edges="E22 E30.558"/>
    </vehicle>
    <vehicle id="res_veh_int119" type="res_veh_int1_passenger" depart="3828.94" departLane="best" departSpeed="max">
        <route edges="E22 E30.558"/>
    </vehicle>
    <vehicle id="res_veh_int120" type="res_veh_int1_passenger" depart="3840.93" departLane="best" departSpeed="max">
        <route edges="E22 E18.410"/>
    </vehicle>
    <vehicle id="res_veh_int121" type="res_veh_int1_passenger" depart="3852.93" departLane="best" departSpeed="max">
        <route edges="E18 E22.488"/>
    </vehicle>
    <vehicle id="res_veh_int122" type="res_veh_int1_passenger" depart="3864.93" departLane="best" departSpeed="max">
        <route edges="E18 E18.410"/>
    </vehicle>
    <vehicle id="res_veh_int123" type="res_veh_int1_passenger" depart="3876.92" departLane="best" departSpeed="max">
        <route edges="E18 E22.488"/>
    </vehicle>
    <vehicle id="res_veh_int124" type="res_veh_int1_passenger" depart="3888.92" departLane="best" departSpeed="max">
        <route edges="E22 E22.488"/>
    </vehicle>
    <vehicle id="res_veh_int125" type="res_veh_int1_passenger" depart="3900.92" departLane="best" departSpeed="max">
        <route edges="E18 E18.410"/>
    </vehicle>
    <vehicle id="res_veh_int126" type="res_veh_int1_passenger" depart="3912.91" departLane="best" departSpeed="max">
        <route edges="E18 E31.622"/>
    </vehicle>
    <vehicle id="res_veh_int127" type="res_veh_int1_passenger" depart="3924.91" departLane="best" departSpeed="max">
        <route edges="E22 E30.558"/>
    </vehicle>
    <vehicle id="res_veh_int129" type="res_veh_int1_passenger" depart="3948.90" departLane="best" departSpeed="max">
        <route edges="E18 E22.488"/>
    </vehicle>
    <vehicle id="res_veh_int130" type="res_veh_int1_passenger" depart="3960.90" departLane="best" departSpeed="max">
        <route edges="E22 E30.558"/>
    </vehicle>
    <vehicle id="res_veh_int133" type="res_veh_int1_passenger" depart="3996.89" departLane="best" departSpeed="max">
        <route edges="E18 E18.410"/>
    </vehicle>
    <vehicle id="res_veh_int134" type="res_veh_int1_passenger" depart="4008.89" departLane="best" departSpeed="max">
        <route edges="E18 E22.488"/>
    </vehicle>
    <vehicle id="res_veh_int135" type="res_veh_int1_passenger" depart="4020.88" departLane="best" departSpeed="max">
        <route edges="E18 E31.622"/>
    </vehicle>
    <vehicle id="res_veh_int136" type="res_veh_int1_passenger" depart="4032.88" departLane="best" departSpeed="max">
        <route edges="E22 E22.488"/>
    </vehicle>
    <vehicle id="res_veh_int137" type="res_veh_int1_passenger" depart="4044.88" departLane="best" departSpeed="max">
        <route edges="E22 E22.488"/>
    </vehicle>
    <vehicle id="res_veh_int138" type="res_veh_int1_passenger" depart="4056.87" departLane="best" departSpeed="max">
        <route edges="E22 E22.488"/>
    </vehicle>
    <vehicle id="res_veh_int139" type="res_veh_int1_passenger" depart="4068.87" departLane="best" departSpeed="max">
        <route edges="E18 E18.410"/>
    </vehicle>
    <vehicle id="res_veh_int140" type="res_veh_int1_passenger" depart="4080.87" departLane="best" departSpeed="max">
        <route edges="E18 E22.488"/>
    </vehicle>
    <vehicle id="res_veh_int141" type="res_veh_int1_passenger" depart="4092.86" departLane="best" departSpeed="max">
        <route edges="E18 E31.622"/>
    </vehicle>
    <vehicle id="res_veh_int142" type="res_veh_int1_passenger" depart="4104.86" departLane="best" departSpeed="max">
        <route edges="E18 E18.410"/>
    </vehicle>
    <vehicle id="res_veh_int143" type="res_veh_int1_passenger" depart="4116.86" departLane="best" departSpeed="max">
        <route edges="E22 E30.558"/>
    </vehicle>
    <vehicle id="res_veh_int144" type="res_veh_int1_passenger" depart="4128.85" departLane="best" departSpeed="max">
        <route edges="E18 E18.410"/>
    </vehicle>
    <vehicle id="res_veh_int146" type="res_veh_int1_passenger" depart="4152.85" departLane="best" departSpeed="max">
        <route edges="E22 E22.488"/>
    </vehicle>
    <vehicle id="res_veh_int147" type="res_veh_int1_passenger" depart="4164.84" departLane="best" departSpeed="max">
        <route edges="E18 E22.488"/>
    </vehicle>
    <vehicle id="res_veh_int148" type="res_veh_int1_passenger" depart="4176.84" departLane="best" departSpeed="max">
        <route edges="E22 E30.558"/>
    </vehicle>
    <vehicle id="res_veh_int151" type="res_veh_int1_passenger" depart="4212.83" departLane="best" departSpeed="max">
        <route edges="E22 E30.558"/>
    </vehicle>
    <vehicle id="res_veh_int153" type="res_veh_int1_passenger" depart="4236.82" departLane="best" departSpeed="max">
        <route edges="E18 E22.488"/>
    </vehicle>
    <vehicle id="res_veh_int154" type="res_veh_int1_passenger" depart="4248.82" departLane="best" departSpeed="max">
        <route edges="E18 E31.622"/>
    </vehicle>
    <vehicle id="res_veh_int155" type="res_veh_int1_passenger" depart="4260.82" departLane="best" departSpeed="max">
        <route edges="E22 E22.488"/>
    </vehicle>
    <vehicle id="res_veh_int156" type="res_veh_int1_passenger" depart="4272.81" departLane="best" departSpeed="max">
        <route edges="E18 E18.410"/>
    </vehicle>
    <vehicle id="res_veh_int159" type="res_veh_int1_passenger" depart="4308.80" departLane="best" departSpeed="max">
        <route edges="E22 E18.410"/>
    </vehicle>
    <vehicle id="res_veh_int160" type="res_veh_int1_passenger" depart="4320.80" departLane="best" departSpeed="max">
        <route edges="E22 E30.558"/>
    </vehicle>