<?xml version="1.0" encoding="UTF-8"?>

<!-- generated on 2025-07-17 16:02:43.663634 by randomTrips.py v1_22_0+0002-63e50f52594
<configuration>
    <net-file value="osm.net.xml.gz"/>
    <output-trip-file value="osm.res_veh.trips.xml"/>
    <prefix value="res_veh"/>
    <trip-attributes value="departLane='best'"/>
    <fringe-start-attributes value="departSpeed='max'"/>
    <vehicle-class value="passenger"/>
    <remove-loops value="True"/>
    <validate value="True"/>
    <insertion-rate value="376.0"/>
</configuration>
-->

<!-- generated on 2025-07-17 16:02:43 by Eclipse SUMO duarouter Version 1.22.0
<duarouterConfiguration xmlns:xsi="http://www.w3.org/2001/XMLSchema-instance" xsi:noNamespaceSchemaLocation="http://sumo.dlr.de/xsd/duarouterConfiguration.xsd">

    <input>
        <net-file value="osm.net.xml.gz"/>
        <route-files value="osm.res_veh.trips.xml"/>
    </input>

    <output>
        <output-file value="osm.res_veh.trips.xml.tmp"/>
        <alternatives-output value="NUL"/>
        <write-trips value="true"/>
    </output>

    <processing>
        <remove-loops value="true"/>
    </processing>

    <time>
        <begin value="0.0"/>
        <end value="3600.0"/>
    </time>

    <report>
        <no-warnings value="true"/>
        <ignore-errors value="true"/>
        <no-step-log value="true"/>
    </report>

</duarouterConfiguration>
-->

<routes xmlns:xsi="http://www.w3.org/2001/XMLSchema-instance" xsi:noNamespaceSchemaLocation="http://sumo.dlr.de/xsd/routes_file.xsd">
    <vType id="res_veh_passenger" vClass="passenger"/>
    <trip id="res_veh1" type="res_veh_passenger" depart="9.57" departLane="best" departSpeed="max" from="E16" to="E13"/>
    <trip id="res_veh3" type="res_veh_passenger" depart="28.72" departLane="best" from="E7" to="E1"/>
    <trip id="res_veh5" type="res_veh_passenger" depart="47.87" departLane="best" departSpeed="max" from="E12" to="E20"/>
    <trip id="res_veh6" type="res_veh_passenger" depart="57.45" departLane="best" from="E0" to="E13"/>
    <trip id="res_veh8" type="res_veh_passenger" depart="76.60" departLane="best" departSpeed="max" from="E12" to="E22"/>
    <trip id="res_veh11" type="res_veh_passenger" depart="105.32" departLane="best" departSpeed="max" from="E18" to="E10"/>
    <trip id="res_veh12" type="res_veh_passenger" depart="114.89" departLane="best" departSpeed="max" from="E9" to="E15"/>
    <trip id="res_veh13" type="res_veh_passenger" depart="124.47" departLane="best" from="E1" to="E1"/>
    <trip id="res_veh16" type="res_veh_passenger" depart="153.19" departLane="best" departSpeed="max" from="E21" to="E8"/>
    <trip id="res_veh17" type="res_veh_passenger" depart="162.77" departLane="best" departSpeed="max" from="E19" to="E20"/>
    <trip id="res_veh21" type="res_veh_passenger" depart="201.06" departLane="best" departSpeed="max" from="E12" to="E14"/>
    <trip id="res_veh24" type="res_veh_passenger" depart="229.79" departLane="best" from="E3" to="E15"/>
    <trip id="res_veh25" type="res_veh_passenger" depart="239.36" departLane="best" departSpeed="max" from="E18" to="E13"/>
    <trip id="res_veh29" type="res_veh_passenger" depart="277.66" departLane="best" departSpeed="max" from="E11" to="E17"/>
    <trip id="res_veh31" type="res_veh_passenger" depart="296.81" departLane="best" departSpeed="max" from="E21" to="E3"/>
    <trip id="res_veh34" type="res_veh_passenger" depart="325.53" departLane="best" departSpeed="max" from="E18" to="E14"/>
    <trip id="res_veh35" type="res_veh_passenger" depart="335.11" departLane="best" departSpeed="max" from="E12" to="E8"/>
    <trip id="res_veh36" type="res_veh_passenger" depart="344.68" departLane="best" from="E7" to="E15"/>
    <trip id="res_veh37" type="res_veh_passenger" depart="354.26" departLane="best" from="E3" to="E17"/>
    <trip id="res_veh38" type="res_veh_passenger" depart="363.83" departLane="best" from="E7" to="E2"/>
    <trip id="res_veh39" type="res_veh_passenger" depart="373.40" departLane="best" departSpeed="max" from="E16" to="E13"/>
    <trip id="res_veh40" type="res_veh_passenger" depart="382.98" departLane="best" departSpeed="max" from="E21" to="E14"/>
    <trip id="res_veh42" type="res_veh_passenger" depart="402.13" departLane="best" departSpeed="max" from="E19" to="E13"/>
    <trip id="res_veh43" type="res_veh_passenger" depart="411.70" departLane="best" departSpeed="max" from="E9" to="E20"/>
    <trip id="res_veh48" type="res_veh_passenger" depart="459.57" departLane="best" departSpeed="max" from="E9" to="E20"/>
    <trip id="res_veh49" type="res_veh_passenger" depart="469.15" departLane="best" departSpeed="max" from="E9" to="E6"/>
    <trip id="res_veh50" type="res_veh_passenger" depart="478.72" departLane="best" from="E0" to="E4"/>
    <trip id="res_veh56" type="res_veh_passenger" depart="536.17" departLane="best" departSpeed="max" from="E21" to="E10"/>
    <trip id="res_veh59" type="res_veh_passenger" depart="564.89" departLane="best" departSpeed="max" from="E23" to="E10"/>
    <trip id="res_veh60" type="res_veh_passenger" depart="574.47" departLane="best" from="E5" to="E20"/>
    <trip id="res_veh61" type="res_veh_passenger" depart="584.04" departLane="best" from="E5" to="E20"/>
    <trip id="res_veh66" type="res_veh_passenger" depart="631.91" departLane="best" from="E7" to="E8"/>
    <trip id="res_veh70" type="res_veh_passenger" depart="670.21" departLane="best" from="E2" to="E20"/>
    <trip id="res_veh71" type="res_veh_passenger" depart="679.79" departLane="best" departSpeed="max" from="E16" to="E6"/>
    <trip id="res_veh72" type="res_veh_passenger" depart="689.36" departLane="best" departSpeed="max" from="E19" to="E13"/>
    <trip id="res_veh73" type="res_veh_passenger" depart="698.94" departLane="best" departSpeed="max" from="E21" to="E4"/>
    <trip id="res_veh74" type="res_veh_passenger" depart="708.51" departLane="best" departSpeed="max" from="E12" to="E14"/>
    <trip id="res_veh76" type="res_veh_passenger" depart="727.66" departLane="best" from="E2" to="E20"/>
    <trip id="res_veh78" type="res_veh_passenger" depart="746.81" departLane="best" departSpeed="max" from="E18" to="E22"/>
    <trip id="res_veh81" type="res_veh_passenger" depart="775.53" departLane="best" departSpeed="max" from="E12" to="E7"/>
    <trip id="res_veh84" type="res_veh_passenger" depart="804.26" departLane="best" departSpeed="max" from="E12" to="E10"/>
    <trip id="res_veh85" type="res_veh_passenger" depart="813.83" departLane="best" from="E7" to="E22"/>
    <trip id="res_veh87" type="res_veh_passenger" depart="832.98" departLane="best" from="E5" to="E13"/>
    <trip id="res_veh89" type="res_veh_passenger" depart="852.13" departLane="best" departSpeed="max" from="E19" to="E2"/>
    <trip id="res_veh92" type="res_veh_passenger" depart="880.85" departLane="best" departSpeed="max" from="E19" to="E15"/>
    <trip id="res_veh93" type="res_veh_passenger" depart="890.43" departLane="best" from="E6" to="E13"/>
    <trip id="res_veh94" type="res_veh_passenger" depart="900.00" departLane="best" departSpeed="max" from="E12" to="E2"/>
    <trip id="res_veh95" type="res_veh_passenger" depart="909.57" departLane="best" departSpeed="max" from="E19" to="E14"/>
    <trip id="res_veh96" type="res_veh_passenger" depart="919.15" departLane="best" departSpeed="max" from="E12" to="E7"/>
    <trip id="res_veh99" type="res_veh_passenger" depart="947.87" departLane="best" departSpeed="max" from="E9" to="E6"/>
    <trip id="res_veh104" type="res_veh_passenger" depart="995.74" departLane="best" departSpeed="max" from="E19" to="E8"/>
    <trip id="res_veh105" type="res_veh_passenger" depart="1005.32" departLane="best" departSpeed="max" from="E16" to="E5"/>
    <trip id="res_veh108" type="res_veh_passenger" depart="1034.04" departLane="best" departSpeed="max" from="E21" to="E4"/>
    <trip id="res_veh109" type="res_veh_passenger" depart="1043.62" departLane="best" departSpeed="max" from="E11" to="E14"/>
    <trip id="res_veh110" type="res_veh_passenger" depart="1053.19" departLane="best" departSpeed="max" from="E9" to="E22"/>
    <trip id="res_veh111" type="res_veh_passenger" depart="1062.77" departLane="best" departSpeed="max" from="E21" to="E4"/>
    <trip id="res_veh112" type="res_veh_passenger" depart="1072.34" departLane="best" from="E0" to="E22"/>
    <trip id="res_veh113" type="res_veh_passenger" depart="1081.91" departLane="best" departSpeed="max" from="E21" to="E6"/>
    <trip id="res_veh114" type="res_veh_passenger" depart="1091.49" departLane="best" departSpeed="max" from="E11" to="E8"/>
    <trip id="res_veh116" type="res_veh_passenger" depart="1110.64" departLane="best" departSpeed="max" from="E23" to="E3"/>
    <trip id="res_veh117" type="res_veh_passenger" depart="1120.21" departLane="best" departSpeed="max" from="E12" to="E1"/>
    <trip id="res_veh119" type="res_veh_passenger" depart="1139.36" departLane="best" departSpeed="max" from="E23" to="E22"/>
    <trip id="res_veh120" type="res_veh_passenger" depart="1148.94" departLane="best" departSpeed="max" from="E19" to="E22"/>
    <trip id="res_veh122" type="res_veh_passenger" depart="1168.09" departLane="best" departSpeed="max" from="E12" to="E4"/>
    <trip id="res_veh123" type="res_veh_passenger" depart="1177.66" departLane="best" departSpeed="max" from="E12" to="E17"/>
    <trip id="res_veh124" type="res_veh_passenger" depart="1187.23" departLane="best" from="E3" to="E14"/>
    <trip id="res_veh130" type="res_veh_passenger" depart="1244.68" departLane="best" from="E7" to="E7"/>
    <trip id="res_veh131" type="res_veh_passenger" depart="1254.26" departLane="best" departSpeed="max" from="E18" to="E10"/>
    <trip id="res_veh133" type="res_veh_passenger" depart="1273.40" departLane="best" departSpeed="max" from="E23" to="E8"/>
    <trip id="res_veh135" type="res_veh_passenger" depart="1292.55" departLane="best" from="E6" to="E14"/>
    <trip id="res_veh136" type="res_veh_passenger" depart="1302.13" departLane="best" from="E3" to="E8"/>
    <trip id="res_veh137" type="res_veh_passenger" depart="1311.70" departLane="best" departSpeed="max" from="E11" to="E1"/>
    <trip id="res_veh139" type="res_veh_passenger" depart="1330.85" departLane="best" departSpeed="max" from="E16" to="E22"/>
    <trip id="res_veh141" type="res_veh_passenger" depart="1350.00" departLane="best" from="E3" to="E14"/>
    <trip id="res_veh144" type="res_veh_passenger" depart="1378.72" departLane="best" departSpeed="max" from="E19" to="E14"/>
    <trip id="res_veh146" type="res_veh_passenger" depart="1397.87" departLane="best" from="E3" to="E14"/>
    <trip id="res_veh150" type="res_veh_passenger" depart="1436.17" departLane="best" from="E7" to="E20"/>
    <trip id="res_veh154" type="res_veh_passenger" depart="1474.47" departLane="best" from="E5" to="E6"/>
    <trip id="res_veh156" type="res_veh_passenger" depart="1493.62" departLane="best" departSpeed="max" from="E12" to="E1"/>
    <trip id="res_veh158" type="res_veh_passenger" depart="1512.77" departLane="best" departSpeed="max" from="E19" to="E22"/>
    <trip id="res_veh162" type="res_veh_passenger" depart="1551.06" departLane="best" from="E0" to="E4"/>
    <trip id="res_veh164" type="res_veh_passenger" depart="1570.21" departLane="best" from="E5" to="E6"/>
    <trip id="res_veh165" type="res_veh_passenger" depart="1579.79" departLane="best" from="E5" to="E14"/>
    <trip id="res_veh166" type="res_veh_passenger" depart="1589.36" departLane="best" from="E5" to="E1"/>
    <trip id="res_veh167" type="res_veh_passenger" depart="1598.94" departLane="best" from="E6" to="E6"/>
    <trip id="res_veh170" type="res_veh_passenger" depart="1627.66" departLane="best" from="E5" to="E13"/>
    <trip id="res_veh171" type="res_veh_passenger" depart="1637.23" departLane="best" from="E0" to="E13"/>
    <trip id="res_veh172" type="res_veh_passenger" depart="1646.81" departLane="best" departSpeed="max" from="E18" to="E6"/>
    <trip id="res_veh173" type="res_veh_passenger" depart="1656.38" departLane="best" departSpeed="max" from="E9" to="E14"/>
    <trip id="res_veh174" type="res_veh_passenger" depart="1665.96" departLane="best" from="E3" to="E17"/>
    <trip id="res_veh175" type="res_veh_passenger" depart="1675.53" departLane="best" departSpeed="max" from="E9" to="E20"/>
    <trip id="res_veh177" type="res_veh_passenger" depart="1694.68" departLane="best" departSpeed="max" from="E9" to="E10"/>
    <trip id="res_veh178" type="res_veh_passenger" depart="1704.26" departLane="best" departSpeed="max" from="E9" to="E14"/>
    <trip id="res_veh181" type="res_veh_passenger" depart="1732.98" departLane="best" departSpeed="max" from="E23" to="E20"/>
    <trip id="res_veh182" type="res_veh_passenger" depart="1742.55" departLane="best" departSpeed="max" from="E19" to="E22"/>
    <trip id="res_veh185" type="res_veh_passenger" depart="1771.28" departLane="best" departSpeed="max" from="E21" to="E4"/>
    <trip id="res_veh188" type="res_veh_passenger" depart="1800.00" departLane="best" from="E3" to="E15"/>
    <trip id="res_veh189" type="res_veh_passenger" depart="1809.57" departLane="best" departSpeed="max" from="E18" to="E6"/>
    <trip id="res_veh191" type="res_veh_passenger" depart="1828.72" departLane="best" departSpeed="max" from="E16" to="E17"/>
    <trip id="res_veh192" type="res_veh_passenger" depart="1838.30" departLane="best" departSpeed="max" from="E19" to="E14"/>
    <trip id="res_veh193" type="res_veh_passenger" depart="1847.87" departLane="best" departSpeed="max" from="E11" to="E17"/>
    <trip id="res_veh195" type="res_veh_passenger" depart="1867.02" departLane="best" from="E7" to="E22"/>
    <trip id="res_veh196" type="res_veh_passenger" depart="1876.60" departLane="best" departSpeed="max" from="E16" to="E20"/>
    <trip id="res_veh197" type="res_veh_passenger" depart="1886.17" departLane="best" from="E0" to="E14"/>
    <trip id="res_veh198" type="res_veh_passenger" depart="1895.74" departLane="best" departSpeed="max" from="E19" to="E22"/>
    <trip id="res_veh204" type="res_veh_passenger" depart="1953.19" departLane="best" from="E3" to="E15"/>
    <trip id="res_veh206" type="res_veh_passenger" depart="1972.34" departLane="best" from="E3" to="E13"/>
    <trip id="res_veh208" type="res_veh_passenger" depart="1991.49" departLane="best" departSpeed="max" from="E12" to="E2"/>
    <trip id="res_veh211" type="res_veh_passenger" depart="2020.21" departLane="best" departSpeed="max" from="E12" to="E4"/>
    <trip id="res_veh214" type="res_veh_passenger" depart="2048.94" departLane="best" from="E5" to="E5"/>
    <trip id="res_veh216" type="res_veh_passenger" depart="2068.09" departLane="best" departSpeed="max" from="E11" to="E8"/>
    <trip id="res_veh220" type="res_veh_passenger" depart="2106.38" departLane="best" from="E3" to="E8"/>
    <trip id="res_veh221" type="res_veh_passenger" depart="2115.96" departLane="best" departSpeed="max" from="E23" to="E8"/>
    <trip id="res_veh222" type="res_veh_passenger" depart="2125.53" departLane="best" from="E7" to="E22"/>
    <trip id="res_veh225" type="res_veh_passenger" depart="2154.26" departLane="best" from="E7" to="E4"/>
    <trip id="res_veh228" type="res_veh_passenger" depart="2182.98" departLane="best" from="E5" to="E20"/>
    <trip id="res_veh229" type="res_veh_passenger" depart="2192.55" departLane="best" from="E3" to="E14"/>
    <trip id="res_veh231" type="res_veh_passenger" depart="2211.70" departLane="best" departSpeed="max" from="E16" to="E15"/>
    <trip id="res_veh232" type="res_veh_passenger" depart="2221.28" departLane="best" departSpeed="max" from="E21" to="E10"/>
    <trip id="res_veh233" type="res_veh_passenger" depart="2230.85" departLane="best" departSpeed="max" from="E12" to="E4"/>
    <trip id="res_veh235" type="res_veh_passenger" depart="2250.00" departLane="best" departSpeed="max" from="E19" to="E20"/>
    <trip id="res_veh236" type="res_veh_passenger" depart="2259.57" departLane="best" departSpeed="max" from="E19" to="E13"/>
    <trip id="res_veh237" type="res_veh_passenger" depart="2269.15" departLane="best" departSpeed="max" from="E19" to="E7"/>
    <trip id="res_veh238" type="res_veh_passenger" depart="2278.72" departLane="best" departSpeed="max" from="E23" to="E4"/>
    <trip id="res_veh243" type="res_veh_passenger" depart="2326.60" departLane="best" departSpeed="max" from="E19" to="E4"/>
    <trip id="res_veh244" type="res_veh_passenger" depart="2336.17" departLane="best" departSpeed="max" from="E21" to="E22"/>
    <trip id="res_veh248" type="res_veh_passenger" depart="2374.47" departLane="best" departSpeed="max" from="E19" to="E10"/>
    <trip id="res_veh251" type="res_veh_passenger" depart="2403.19" departLane="best" departSpeed="max" from="E19" to="E22"/>
    <trip id="res_veh253" type="res_veh_passenger" depart="2422.34" departLane="best" departSpeed="max" from="E11" to="E2"/>
    <trip id="res_veh254" type="res_veh_passenger" depart="2431.91" departLane="best" from="E0" to="E17"/>
    <trip id="res_veh255" type="res_veh_passenger" depart="2441.49" departLane="best" departSpeed="max" from="E12" to="E15"/>
    <trip id="res_veh257" type="res_veh_passenger" depart="2460.64" departLane="best" from="E5" to="E6"/>
    <trip id="res_veh258" type="res_veh_passenger" depart="2470.21" departLane="best" departSpeed="max" from="E16" to="E1"/>
    <trip id="res_veh259" type="res_veh_passenger" depart="2479.79" departLane="best" from="E0" to="E20"/>
    <trip id="res_veh260" type="res_veh_passenger" depart="2489.36" departLane="best" departSpeed="max" from="E9" to="E15"/>
    <trip id="res_veh263" type="res_veh_passenger" depart="2518.09" departLane="best" departSpeed="max" from="E9" to="E13"/>
    <trip id="res_veh264" type="res_veh_passenger" depart="2527.66" departLane="best" from="E0" to="E10"/>
    <trip id="res_veh266" type="res_veh_passenger" depart="2546.81" departLane="best" departSpeed="max" from="E23" to="E13"/>
    <trip id="res_veh268" type="res_veh_passenger" depart="2565.96" departLane="best" departSpeed="max" from="E11" to="E22"/>
    <trip id="res_veh273" type="res_veh_passenger" depart="2613.83" departLane="best" departSpeed="max" from="E9" to="E17"/>
    <trip id="res_veh278" type="res_veh_passenger" depart="2661.70" departLane="best" from="E1" to="E8"/>
    <trip id="res_veh279" type="res_veh_passenger" depart="2671.28" departLane="best" from="E5" to="E15"/>
    <trip id="res_veh280" type="res_veh_passenger" depart="2680.85" departLane="best" departSpeed="max" from="E19" to="E15"/>
    <trip id="res_veh281" type="res_veh_passenger" depart="2690.43" departLane="best" departSpeed="max" from="E21" to="E15"/>
    <trip id="res_veh282" type="res_veh_passenger" depart="2700.00" departLane="best" from="E6" to="E6"/>
    <trip id="res_veh283" type="res_veh_passenger" depart="2709.57" departLane="best" from="E1" to="E8"/>
    <trip id="res_veh284" type="res_veh_passenger" depart="2719.15" departLane="best" from="E3" to="E6"/>
    <trip id="res_veh285" type="res_veh_passenger" depart="2728.72" departLane="best" from="E4" to="E17"/>
    <trip id="res_veh287" type="res_veh_passenger" depart="2747.87" departLane="best" departSpeed="max" from="E16" to="E5"/>
    <trip id="res_veh289" type="res_veh_passenger" depart="2767.02" departLane="best" departSpeed="max" from="E19" to="E4"/>
    <trip id="res_veh290" type="res_veh_passenger" depart="2776.60" departLane="best" departSpeed="max" from="E16" to="E6"/>
    <trip id="res_veh293" type="res_veh_passenger" depart="2805.32" departLane="best" from="E2" to="E22"/>
    <trip id="res_veh307" type="res_veh_passenger" depart="2939.36" departLane="best" departSpeed="max" from="E21" to="E17"/>
    <trip id="res_veh310" type="res_veh_passenger" depart="2968.09" departLane="best" departSpeed="max" from="E16" to="E1"/>
    <trip id="res_veh311" type="res_veh_passenger" depart="2977.66" departLane="best" departSpeed="max" from="E12" to="E1"/>
    <trip id="res_veh313" type="res_veh_passenger" depart="2996.81" departLane="best" departSpeed="max" from="E11" to="E13"/>
    <trip id="res_veh315" type="res_veh_passenger" depart="3015.96" departLane="best" departSpeed="max" from="E9" to="E20"/>
    <trip id="res_veh316" type="res_veh_passenger" depart="3025.53" departLane="best" departSpeed="max" from="E16" to="E1"/>
    <trip id="res_veh319" type="res_veh_passenger" depart="3054.26" departLane="best" departSpeed="max" from="E21" to="E14"/>
    <trip id="res_veh320" type="res_veh_passenger" depart="3063.83" departLane="best" departSpeed="max" from="E9" to="E20"/>
    <trip id="res_veh321" type="res_veh_passenger" depart="3073.40" departLane="best" from="E4" to="E10"/>
    <trip id="res_veh324" type="res_veh_passenger" depart="3102.13" departLane="best" from="E2" to="E2"/>
    <trip id="res_veh326" type="res_veh_passenger" depart="3121.28" departLane="best" departSpeed="max" from="E9" to="E2"/>
    <trip id="res_veh329" type="res_veh_passenger" depart="3150.00" departLane="best" from="E0" to="E10"/>
    <trip id="res_veh330" type="res_veh_passenger" depart="3159.57" departLane="best" departSpeed="max" from="E23" to="E14"/>
    <trip id="res_veh332" type="res_veh_passenger" depart="3178.72" departLane="best" from="E5" to="E22"/>
    <trip id="res_veh333" type="res_veh_passenger" depart="3188.30" departLane="best" from="E5" to="E13"/>
    <trip id="res_veh336" type="res_veh_passenger" depart="3217.02" departLane="best" departSpeed="max" from="E9" to="E14"/>
    <trip id="res_veh337" type="res_veh_passenger" depart="3226.60" departLane="best" departSpeed="max" from="E23" to="E22"/>
    <trip id="res_veh340" type="res_veh_passenger" depart="3255.32" departLane="best" from="E3" to="E10"/>
    <trip id="res_veh341" type="res_veh_passenger" depart="3264.89" departLane="best" departSpeed="max" from="E11" to="E1"/>
    <trip id="res_veh342" type="res_veh_passenger" depart="3274.47" departLane="best" from="E0" to="E2"/>
    <trip id="res_veh343" type="res_veh_passenger" depart="3284.04" departLane="best" departSpeed="max" from="E23" to="E14"/>
    <trip id="res_veh344" type="res_veh_passenger" depart="3293.62" departLane="best" departSpeed="max" from="E12" to="E4"/>
    <trip id="res_veh349" type="res_veh_passenger" depart="3341.49" departLane="best" departSpeed="max" from="E19" to="E20"/>
    <trip id="res_veh352" type="res_veh_passenger" depart="3370.21" departLane="best" departSpeed="max" from="E11" to="E14"/>
    <trip id="res_veh354" type="res_veh_passenger" depart="3389.36" departLane="best" departSpeed="max" from="E16" to="E1"/>
    <trip id="res_veh355" type="res_veh_passenger" depart="3398.94" departLane="best" from="E4" to="E4"/>
    <trip id="res_veh356" type="res_veh_passenger" depart="3408.51" departLane="best" departSpeed="max" from="E9" to="E20"/>
    <trip id="res_veh358" type="res_veh_passenger" depart="3427.66" departLane="best" from="E0" to="E17"/>
    <trip id="res_veh359" type="res_veh_passenger" depart="3437.23" departLane="best" departSpeed="max" from="E18" to="E14"/>
    <trip id="res_veh360" type="res_veh_passenger" depart="3446.81" departLane="best" from="E1" to="E8"/>
    <trip id="res_veh363" type="res_veh_passenger" depart="3475.53" departLane="best" from="E3" to="E14"/>
    <trip id="res_veh366" type="res_veh_passenger" depart="3504.26" departLane="best" from="E7" to="E10"/>
    <trip id="res_veh367" type="res_veh_passenger" depart="3513.83" departLane="best" departSpeed="max" from="E23" to="E3"/>
    <trip id="res_veh369" type="res_veh_passenger" depart="3532.98" departLane="best" departSpeed="max" from="E18" to="E15"/>
    <trip id="res_veh370" type="res_veh_passenger" depart="3542.55" departLane="best" from="E3" to="E6"/>
    <trip id="res_veh371" type="res_veh_passenger" depart="3552.13" departLane="best" departSpeed="max" from="E18" to="E4"/>
    <trip id="res_veh372" type="res_veh_passenger" depart="3561.70" departLane="best" departSpeed="max" from="E16" to="E8"/>
    <trip id="res_veh375" type="res_veh_passenger" depart="3590.43" departLane="best" departSpeed="max" from="E18" to="E8"/>
</routes>
