<?xml version="1.0" encoding="UTF-8"?>

<!-- generated on 2025-07-17 16:02:44.426233 by randomTrips.py v1_22_0+0002-63e50f52594
<configuration>
    <net-file value="osm.net.xml.gz"/>
    <output-trip-file value="osm.res_truck.trips.xml"/>
    <prefix value="res_truck"/>
    <trip-attributes value="departLane='best'"/>
    <fringe-start-attributes value="departSpeed='max'"/>
    <vehicle-class value="truck"/>
    <vclass value="truck"/>
    <remove-loops value="True"/>
    <validate value="True"/>
    <insertion-rate value="50.0"/>
</configuration>
-->

<!-- generated on 2025-07-17 16:02:44 by Eclipse SUMO duarouter Version 1.22.0
<duarouterConfiguration xmlns:xsi="http://www.w3.org/2001/XMLSchema-instance" xsi:noNamespaceSchemaLocation="http://sumo.dlr.de/xsd/duarouterConfiguration.xsd">

    <input>
        <net-file value="osm.net.xml.gz"/>
        <route-files value="osm.res_truck.trips.xml"/>
    </input>

    <output>
        <output-file value="osm.res_truck.trips.xml.tmp"/>
        <alternatives-output value="NUL"/>
        <write-trips value="true"/>
    </output>

    <processing>
        <remove-loops value="true"/>
    </processing>

    <time>
        <begin value="0.0"/>
        <end value="3600.0"/>
    </time>

    <report>
        <no-warnings value="true"/>
        <ignore-errors value="true"/>
        <no-step-log value="true"/>
    </report>

</duarouterConfiguration>
-->

<routes xmlns:xsi="http://www.w3.org/2001/XMLSchema-instance" xsi:noNamespaceSchemaLocation="http://sumo.dlr.de/xsd/routes_file.xsd">
    <vType id="res_truck_truck" vClass="truck"/>
    <trip id="res_truck1" type="res_truck_truck" depart="72.00" departLane="best" departSpeed="max" from="E16" to="E13"/>
    <trip id="res_truck3" type="res_truck_truck" depart="216.00" departLane="best" from="E7" to="E1"/>
    <trip id="res_truck5" type="res_truck_truck" depart="360.00" departLane="best" departSpeed="max" from="E12" to="E20"/>
    <trip id="res_truck6" type="res_truck_truck" depart="432.00" departLane="best" from="E0" to="E13"/>
    <trip id="res_truck8" type="res_truck_truck" depart="576.00" departLane="best" departSpeed="max" from="E12" to="E22"/>
    <trip id="res_truck11" type="res_truck_truck" depart="792.00" departLane="best" departSpeed="max" from="E18" to="E10"/>
    <trip id="res_truck12" type="res_truck_truck" depart="864.00" departLane="best" departSpeed="max" from="E9" to="E15"/>
    <trip id="res_truck13" type="res_truck_truck" depart="936.00" departLane="best" from="E1" to="E1"/>
    <trip id="res_truck16" type="res_truck_truck" depart="1152.00" departLane="best" departSpeed="max" from="E21" to="E8"/>
    <trip id="res_truck17" type="res_truck_truck" depart="1224.00" departLane="best" departSpeed="max" from="E19" to="E20"/>
    <trip id="res_truck21" type="res_truck_truck" depart="1512.00" departLane="best" departSpeed="max" from="E12" to="E14"/>
    <trip id="res_truck24" type="res_truck_truck" depart="1728.00" departLane="best" from="E3" to="E15"/>
    <trip id="res_truck25" type="res_truck_truck" depart="1800.00" departLane="best" departSpeed="max" from="E18" to="E13"/>
    <trip id="res_truck29" type="res_truck_truck" depart="2088.00" departLane="best" departSpeed="max" from="E11" to="E17"/>
    <trip id="res_truck31" type="res_truck_truck" depart="2232.00" departLane="best" departSpeed="max" from="E21" to="E3"/>
    <trip id="res_truck34" type="res_truck_truck" depart="2448.00" departLane="best" departSpeed="max" from="E18" to="E14"/>
    <trip id="res_truck35" type="res_truck_truck" depart="2520.00" departLane="best" departSpeed="max" from="E12" to="E8"/>
    <trip id="res_truck36" type="res_truck_truck" depart="2592.00" departLane="best" from="E7" to="E15"/>
    <trip id="res_truck37" type="res_truck_truck" depart="2664.00" departLane="best" from="E3" to="E17"/>
    <trip id="res_truck38" type="res_truck_truck" depart="2736.00" departLane="best" from="E7" to="E2"/>
    <trip id="res_truck39" type="res_truck_truck" depart="2808.00" departLane="best" departSpeed="max" from="E16" to="E13"/>
    <trip id="res_truck40" type="res_truck_truck" depart="2880.00" departLane="best" departSpeed="max" from="E21" to="E14"/>
    <trip id="res_truck42" type="res_truck_truck" depart="3024.00" departLane="best" departSpeed="max" from="E19" to="E13"/>
    <trip id="res_truck43" type="res_truck_truck" depart="3096.00" departLane="best" departSpeed="max" from="E9" to="E20"/>
    <trip id="res_truck48" type="res_truck_truck" depart="3456.00" departLane="best" departSpeed="max" from="E9" to="E20"/>
    <trip id="res_truck49" type="res_truck_truck" depart="3528.00" departLane="best" departSpeed="max" from="E9" to="E6"/>
</routes>
