<?xml version="1.0" encoding="UTF-8"?>

<!-- generated on 2025-08-16 17:39:40 by Eclipse SUMO duarouter Version 1.24.0
<duarouterConfiguration xmlns:xsi="http://www.w3.org/2001/XMLSchema-instance" xsi:noNamespaceSchemaLocation="http://sumo.dlr.de/xsd/duarouterConfiguration.xsd">

    <input>
        <net-file value="osm.net.xml.gz"/>
        <route-files value="osm.res_motorcycle.trips.xml"/>
    </input>

    <output>
        <output-file value="osm.res_motorcycle.rou.xml"/>
    </output>

    <report>
        <ignore-errors value="true"/>
    </report>

</duarouterConfiguration>
-->

<routes xmlns:xsi="http://www.w3.org/2001/XMLSchema-instance" xsi:noNamespaceSchemaLocation="http://sumo.dlr.de/xsd/routes_file.xsd">
    <vType id="res_motorcycle_int0_motorcycle" vClass="motorcycle"/>
    <vehicle id="res_motorcycle_int00" type="res_motorcycle_int0_motorcycle" depart="0.00" departLane="best" departSpeed="max">
        <route edges="E31 E18.410"/>
    </vehicle>
    <vehicle id="res_motorcycle_int01" type="res_motorcycle_int0_motorcycle" depart="14.40" departLane="best" departSpeed="max">
        <route edges="E31 E18.410"/>
    </vehicle>
    <vehicle id="res_motorcycle_int02" type="res_motorcycle_int0_motorcycle" depart="28.80" departLane="best" departSpeed="max">
        <route edges="E31 E30.558"/>
    </vehicle>
    <vehicle id="res_motorcycle_int03" type="res_motorcycle_int0_motorcycle" depart="43.20" departLane="best" departSpeed="max">
        <route edges="E31 E18.410"/>
    </vehicle>
    <vehicle id="res_motorcycle_int04" type="res_motorcycle_int0_motorcycle" depart="57.60" departLane="best" departSpeed="max">
        <route edges="E31 E18.410"/>
    </vehicle>
    <vehicle id="res_motorcycle_int05" type="res_motorcycle_int0_motorcycle" depart="72.00" departLane="best" departSpeed="max">
        <route edges="E22 E30.558"/>
    </vehicle>
    <vehicle id="res_motorcycle_int06" type="res_motorcycle_int0_motorcycle" depart="86.40" departLane="best" departSpeed="max">
        <route edges="E22 E18.410"/>
    </vehicle>
    <vehicle id="res_motorcycle_int07" type="res_motorcycle_int0_motorcycle" depart="100.80" departLane="best" departSpeed="max">
        <route edges="E31 E30.558"/>
    </vehicle>
    <vehicle id="res_motorcycle_int08" type="res_motorcycle_int0_motorcycle" depart="115.20" departLane="best" departSpeed="max">
        <route edges="E22 E30.558"/>
    </vehicle>
    <vehicle id="res_motorcycle_int09" type="res_motorcycle_int0_motorcycle" depart="129.60" departLane="best" departSpeed="max">
        <route edges="E31 E18.410"/>
    </vehicle>
    <vehicle id="res_motorcycle_int010" type="res_motorcycle_int0_motorcycle" depart="144.00" departLane="best" departSpeed="max">
        <route edges="E31 E30.558"/>
    </vehicle>
    <vehicle id="res_motorcycle_int011" type="res_motorcycle_int0_motorcycle" depart="158.40" departLane="best" departSpeed="max">
        <route edges="E31 E18.410"/>
    </vehicle>
    <vehicle id="res_motorcycle_int013" type="res_motorcycle_int0_motorcycle" depart="187.20" departLane="best" departSpeed="max">
        <route edges="E22 E18.410"/>
    </vehicle>
    <vehicle id="res_motorcycle_int014" type="res_motorcycle_int0_motorcycle" depart="201.60" departLane="best" departSpeed="max">
        <route edges="E31 E30.558"/>
    </vehicle>
    <vehicle id="res_motorcycle_int015" type="res_motorcycle_int0_motorcycle" depart="216.00" departLane="best" departSpeed="max">
        <route edges="E31 E30.558"/>
    </vehicle>
    <vehicle id="res_motorcycle_int016" type="res_motorcycle_int0_motorcycle" depart="230.40" departLane="best" departSpeed="max">
        <route edges="E31 E31.622"/>
    </vehicle>
    <vehicle id="res_motorcycle_int017" type="res_motorcycle_int0_motorcycle" depart="244.80" departLane="best" departSpeed="max">
        <route edges="E31 E30.558"/>
    </vehicle>
    <vehicle id="res_motorcycle_int018" type="res_motorcycle_int0_motorcycle" depart="259.20" departLane="best" departSpeed="max">
        <route edges="E31 E30.558"/>
    </vehicle>
    <vehicle id="res_motorcycle_int019" type="res_motorcycle_int0_motorcycle" depart="273.60" departLane="best" departSpeed="max">
        <route edges="E31 E30.558"/>
    </vehicle>
    <vehicle id="res_motorcycle_int020" type="res_motorcycle_int0_motorcycle" depart="288.00" departLane="best" departSpeed="max">
        <route edges="E31 E18.410"/>
    </vehicle>
    <vehicle id="res_motorcycle_int021" type="res_motorcycle_int0_motorcycle" depart="302.40" departLane="best" departSpeed="max">
        <route edges="E22 E22.488"/>
    </vehicle>
    <vehicle id="res_motorcycle_int022" type="res_motorcycle_int0_motorcycle" depart="316.80" departLane="best" departSpeed="max">
        <route edges="E22 E18.410"/>
    </vehicle>
    <vehicle id="res_motorcycle_int023" type="res_motorcycle_int0_motorcycle" depart="331.20" departLane="best" departSpeed="max">
        <route edges="E22 E22.488"/>
    </vehicle>
    <vehicle id="res_motorcycle_int025" type="res_motorcycle_int0_motorcycle" depart="360.00" departLane="best" departSpeed="max">
        <route edges="E31 E18.410"/>
    </vehicle>
    <vehicle id="res_motorcycle_int027" type="res_motorcycle_int0_motorcycle" depart="388.80" departLane="best" departSpeed="max">
        <route edges="E31 E30.558"/>
    </vehicle>
    <vehicle id="res_motorcycle_int028" type="res_motorcycle_int0_motorcycle" depart="403.20" departLane="best" departSpeed="max">
        <route edges="E22 E30.558"/>
    </vehicle>
    <vehicle id="res_motorcycle_int029" type="res_motorcycle_int0_motorcycle" depart="417.60" departLane="best" departSpeed="max">
        <route edges="E22 E22.488"/>
    </vehicle>
    <vehicle id="res_motorcycle_int030" type="res_motorcycle_int0_motorcycle" depart="432.00" departLane="best" departSpeed="max">
        <route edges="E31 E30.558"/>
    </vehicle>
    <vehicle id="res_motorcycle_int031" type="res_motorcycle_int0_motorcycle" depart="446.40" departLane="best" departSpeed="max">
        <route edges="E31 E30.558"/>
    </vehicle>
    <vehicle id="res_motorcycle_int032" type="res_motorcycle_int0_motorcycle" depart="460.80" departLane="best" departSpeed="max">
        <route edges="E31 E31.622"/>
    </vehicle>
    <vehicle id="res_motorcycle_int033" type="res_motorcycle_int0_motorcycle" depart="475.20" departLane="best" departSpeed="max">
        <route edges="E22 E18.410"/>
    </vehicle>
    <vehicle id="res_motorcycle_int039" type="res_motorcycle_int0_motorcycle" depart="561.60" departLane="best" departSpeed="max">
        <route edges="E22 E18.410"/>
    </vehicle>
    <vehicle id="res_motorcycle_int041" type="res_motorcycle_int0_motorcycle" depart="590.40" departLane="best" departSpeed="max">
        <route edges="E31 E31.622"/>
    </vehicle>
    <vehicle id="res_motorcycle_int042" type="res_motorcycle_int0_motorcycle" depart="604.80" departLane="best" departSpeed="max">
        <route edges="E31 E18.410"/>
    </vehicle>
    <vehicle id="res_motorcycle_int043" type="res_motorcycle_int0_motorcycle" depart="619.20" departLane="best" departSpeed="max">
        <route edges="E31 E30.558"/>
    </vehicle>
    <vehicle id="res_motorcycle_int044" type="res_motorcycle_int0_motorcycle" depart="633.60" departLane="best" departSpeed="max">
        <route edges="E22 E18.410"/>
    </vehicle>
    <vehicle id="res_motorcycle_int045" type="res_motorcycle_int0_motorcycle" depart="648.00" departLane="best" departSpeed="max">
        <route edges="E22 E30.558"/>
    </vehicle>
    <vehicle id="res_motorcycle_int047" type="res_motorcycle_int0_motorcycle" depart="676.80" departLane="best" departSpeed="max">
        <route edges="E22 E22.488"/>
    </vehicle>
    <vehicle id="res_motorcycle_int048" type="res_motorcycle_int0_motorcycle" depart="691.20" departLane="best" departSpeed="max">
        <route edges="E31 E30.558"/>
    </vehicle>
    <vehicle id="res_motorcycle_int049" type="res_motorcycle_int0_motorcycle" depart="705.60" departLane="best" departSpeed="max">
        <route edges="E31 E31.622"/>
    </vehicle>
    <vehicle id="res_motorcycle_int050" type="res_motorcycle_int0_motorcycle" depart="720.00" departLane="best" departSpeed="max">
        <route edges="E22 E30.558"/>
    </vehicle>
    <vehicle id="res_motorcycle_int051" type="res_motorcycle_int0_motorcycle" depart="734.40" departLane="best" departSpeed="max">
        <route edges="E31 E30.558"/>
    </vehicle>
    <vehicle id="res_motorcycle_int052" type="res_motorcycle_int0_motorcycle" depart="748.80" departLane="best" departSpeed="max">
        <route edges="E22 E30.558"/>
    </vehicle>
    <vehicle id="res_motorcycle_int053" type="res_motorcycle_int0_motorcycle" depart="763.20" departLane="best" departSpeed="max">
        <route edges="E22 E22.488"/>
    </vehicle>
    <vehicle id="res_motorcycle_int054" type="res_motorcycle_int0_motorcycle" depart="777.60" departLane="best" departSpeed="max">
        <route edges="E31 E31.622"/>
    </vehicle>
    <vehicle id="res_motorcycle_int056" type="res_motorcycle_int0_motorcycle" depart="806.40" departLane="best" departSpeed="max">
        <route edges="E31 E18.410"/>
    </vehicle>
    <vehicle id="res_motorcycle_int057" type="res_motorcycle_int0_motorcycle" depart="820.80" departLane="best" departSpeed="max">
        <route edges="E31 E31.622"/>
    </vehicle>
    <vehicle id="res_motorcycle_int058" type="res_motorcycle_int0_motorcycle" depart="835.20" departLane="best" departSpeed="max">
        <route edges="E31 E30.558"/>
    </vehicle>
    <vehicle id="res_motorcycle_int059" type="res_motorcycle_int0_motorcycle" depart="849.60" departLane="best" departSpeed="max">
        <route edges="E31 E18.410"/>
    </vehicle>
    <vehicle id="res_motorcycle_int060" type="res_motorcycle_int0_motorcycle" depart="864.00" departLane="best" departSpeed="max">
        <route edges="E31 E30.558"/>
    </vehicle>
    <vehicle id="res_motorcycle_int061" type="res_motorcycle_int0_motorcycle" depart="878.40" departLane="best" departSpeed="max">
        <route edges="E31 E30.558"/>
    </vehicle>
    <vehicle id="res_motorcycle_int062" type="res_motorcycle_int0_motorcycle" depart="892.80" departLane="best" departSpeed="max">
        <route edges="E22 E22.488"/>
    </vehicle>
    <vehicle id="res_motorcycle_int064" type="res_motorcycle_int0_motorcycle" depart="921.60" departLane="best" departSpeed="max">
        <route edges="E31 E31.622"/>
    </vehicle>
    <vehicle id="res_motorcycle_int065" type="res_motorcycle_int0_motorcycle" depart="936.00" departLane="best" departSpeed="max">
        <route edges="E31 E18.410"/>
    </vehicle>
    <vehicle id="res_motorcycle_int066" type="res_motorcycle_int0_motorcycle" depart="950.40" departLane="best" departSpeed="max">
        <route edges="E31 E31.622"/>
    </vehicle>
    <vehicle id="res_motorcycle_int067" type="res_motorcycle_int0_motorcycle" depart="964.80" departLane="best" departSpeed="max">
        <route edges="E22 E22.488"/>
    </vehicle>
    <vehicle id="res_motorcycle_int069" type="res_motorcycle_int0_motorcycle" depart="993.60" departLane="best" departSpeed="max">
        <route edges="E31 E18.410"/>
    </vehicle>
    <vehicle id="res_motorcycle_int070" type="res_motorcycle_int0_motorcycle" depart="1008.00" departLane="best" departSpeed="max">
        <route edges="E31 E30.558"/>
    </vehicle>
    <vehicle id="res_motorcycle_int072" type="res_motorcycle_int0_motorcycle" depart="1036.80" departLane="best" departSpeed="max">
        <route edges="E31 E18.410"/>
    </vehicle>
    <vehicle id="res_motorcycle_int073" type="res_motorcycle_int0_motorcycle" depart="1051.20" departLane="best" departSpeed="max">
        <route edges="E31 E30.558"/>
    </vehicle>
    <vehicle id="res_motorcycle_int074" type="res_motorcycle_int0_motorcycle" depart="1065.60" departLane="best" departSpeed="max">
        <route edges="E22 E22.488"/>
    </vehicle>
    <vehicle id="res_motorcycle_int075" type="res_motorcycle_int0_motorcycle" depart="1080.00" departLane="best" departSpeed="max">
        <route edges="E31 E30.558"/>
    </vehicle>
    <vehicle id="res_motorcycle_int076" type="res_motorcycle_int0_motorcycle" depart="1094.40" departLane="best" departSpeed="max">
        <route edges="E31 E30.558"/>
    </vehicle>
    <vehicle id="res_motorcycle_int077" type="res_motorcycle_int0_motorcycle" depart="1108.80" departLane="best" departSpeed="max">
        <route edges="E22 E18.410"/>
    </vehicle>
    <vehicle id="res_motorcycle_int078" type="res_motorcycle_int0_motorcycle" depart="1123.20" departLane="best" departSpeed="max">
        <route edges="E31 E30.558"/>
    </vehicle>
    <vehicle id="res_motorcycle_int079" type="res_motorcycle_int0_motorcycle" depart="1137.60" departLane="best" departSpeed="max">
        <route edges="E22 E18.410"/>
    </vehicle>
    <vehicle id="res_motorcycle_int080" type="res_motorcycle_int0_motorcycle" depart="1152.00" departLane="best" departSpeed="max">
        <route edges="E22 E30.558"/>
    </vehicle>
    <vehicle id="res_motorcycle_int082" type="res_motorcycle_int0_motorcycle" depart="1180.80" departLane="best" departSpeed="max">
        <route edges="E31 E18.410"/>
    </vehicle>
    <vehicle id="res_motorcycle_int083" type="res_motorcycle_int0_motorcycle" depart="1195.20" departLane="best" departSpeed="max">
        <route edges="E22 E30.558"/>
    </vehicle>
    <vehicle id="res_motorcycle_int084" type="res_motorcycle_int0_motorcycle" depart="1209.60" departLane="best" departSpeed="max">
        <route edges="E22 E18.410"/>
    </vehicle>
    <vehicle id="res_motorcycle_int085" type="res_motorcycle_int0_motorcycle" depart="1224.00" departLane="best" departSpeed="max">
        <route edges="E31 E30.558"/>
    </vehicle>
    <vehicle id="res_motorcycle_int086" type="res_motorcycle_int0_motorcycle" depart="1238.40" departLane="best" departSpeed="max">
        <route edges="E31 E31.622"/>
    </vehicle>
    <vehicle id="res_motorcycle_int087" type="res_motorcycle_int0_motorcycle" depart="1252.80" departLane="best" departSpeed="max">
        <route edges="E31 E18.410"/>
    </vehicle>
    <vehicle id="res_motorcycle_int088" type="res_motorcycle_int0_motorcycle" depart="1267.20" departLane="best" departSpeed="max">
        <route edges="E22 E22.488"/>
    </vehicle>
    <vehicle id="res_motorcycle_int090" type="res_motorcycle_int0_motorcycle" depart="1296.00" departLane="best" departSpeed="max">
        <route edges="E31 E30.558"/>
    </vehicle>
    <vehicle id="res_motorcycle_int091" type="res_motorcycle_int0_motorcycle" depart="1310.40" departLane="best" departSpeed="max">
        <route edges="E31 E18.410"/>
    </vehicle>
    <vehicle id="res_motorcycle_int093" type="res_motorcycle_int0_motorcycle" depart="1339.20" departLane="best" departSpeed="max">
        <route edges="E31 E18.410"/>
    </vehicle>
    <vehicle id="res_motorcycle_int094" type="res_motorcycle_int0_motorcycle" depart="1353.60" departLane="best" departSpeed="max">
        <route edges="E22 E22.488"/>
    </vehicle>
    <vehicle id="res_motorcycle_int097" type="res_motorcycle_int0_motorcycle" depart="1396.80" departLane="best" departSpeed="max">
        <route edges="E31 E31.622"/>
    </vehicle>
    <vehicle id="res_motorcycle_int098" type="res_motorcycle_int0_motorcycle" depart="1411.20" departLane="best" departSpeed="max">
        <route edges="E31 E18.410"/>
    </vehicle>
    <vehicle id="res_motorcycle_int099" type="res_motorcycle_int0_motorcycle" depart="1425.60" departLane="best" departSpeed="max">
        <route edges="E31 E31.622"/>
    </vehicle>
    <vehicle id="res_motorcycle_int0100" type="res_motorcycle_int0_motorcycle" depart="1440.00" departLane="best" departSpeed="max">
        <route edges="E31 E31.622"/>
    </vehicle>
    <vehicle id="res_motorcycle_int0101" type="res_motorcycle_int0_motorcycle" depart="1454.40" departLane="best" departSpeed="max">
        <route edges="E31 E18.410"/>
    </vehicle>
    <vehicle id="res_motorcycle_int0102" type="res_motorcycle_int0_motorcycle" depart="1468.80" departLane="best" departSpeed="max">
        <route edges="E31 E18.410"/>
    </vehicle>
    <vehicle id="res_motorcycle_int0103" type="res_motorcycle_int0_motorcycle" depart="1483.20" departLane="best" departSpeed="max">
        <route edges="E31 E18.410"/>
    </vehicle>
    <vehicle id="res_motorcycle_int0104" type="res_motorcycle_int0_motorcycle" depart="1497.60" departLane="best" departSpeed="max">
        <route edges="E31 E31.622"/>
    </vehicle>
    <vehicle id="res_motorcycle_int0107" type="res_motorcycle_int0_motorcycle" depart="1540.80" departLane="best" departSpeed="max">
        <route edges="E31 E31.622"/>
    </vehicle>
    <vehicle id="res_motorcycle_int0108" type="res_motorcycle_int0_motorcycle" depart="1555.20" departLane="best" departSpeed="max">
        <route edges="E31 E30.558"/>
    </vehicle>
    <vehicle id="res_motorcycle_int0109" type="res_motorcycle_int0_motorcycle" depart="1569.60" departLane="best" departSpeed="max">
        <route edges="E22 E22.488"/>
    </vehicle>
    <vehicle id="res_motorcycle_int0110" type="res_motorcycle_int0_motorcycle" depart="1584.00" departLane="best" departSpeed="max">
        <route edges="E31 E30.558"/>
    </vehicle>
    <vehicle id="res_motorcycle_int0111" type="res_motorcycle_int0_motorcycle" depart="1598.40" departLane="best" departSpeed="max">
        <route edges="E31 E30.558"/>
    </vehicle>
    <vehicle id="res_motorcycle_int0112" type="res_motorcycle_int0_motorcycle" depart="1612.80" departLane="best" departSpeed="max">
        <route edges="E22 E30.558"/>
    </vehicle>
    <vehicle id="res_motorcycle_int0113" type="res_motorcycle_int0_motorcycle" depart="1627.20" departLane="best" departSpeed="max">
        <route edges="E31 E31.622"/>
    </vehicle>
    <vehicle id="res_motorcycle_int0115" type="res_motorcycle_int0_motorcycle" depart="1656.00" departLane="best" departSpeed="max">
        <route edges="E22 E18.410"/>
    </vehicle>
    <vehicle id="res_motorcycle_int0116" type="res_motorcycle_int0_motorcycle" depart="1670.40" departLane="best" departSpeed="max">
        <route edges="E31 E30.558"/>
    </vehicle>
    <vehicle id="res_motorcycle_int0117" type="res_motorcycle_int0_motorcycle" depart="1684.80" departLane="best" departSpeed="max">
        <route edges="E22 E18.410"/>
    </vehicle>
    <vehicle id="res_motorcycle_int0118" type="res_motorcycle_int0_motorcycle" depart="1699.20" departLane="best" departSpeed="max">
        <route edges="E31 E18.410"/>
    </vehicle>
    <vehicle id="res_motorcycle_int0119" type="res_motorcycle_int0_motorcycle" depart="1713.60" departLane="best" departSpeed="max">
        <route edges="E31 E30.558"/>
    </vehicle>
    <vehicle id="res_motorcycle_int0120" type="res_motorcycle_int0_motorcycle" depart="1728.00" departLane="best" departSpeed="max">
        <route edges="E31 E30.558"/>
    </vehicle>
    <vehicle id="res_motorcycle_int0121" type="res_motorcycle_int0_motorcycle" depart="1742.40" departLane="best" departSpeed="max">
        <route edges="E31 E31.622"/>
    </vehicle>
    <vehicle id="res_motorcycle_int0122" type="res_motorcycle_int0_motorcycle" depart="1756.80" departLane="best" departSpeed="max">
        <route edges="E22 E30.558"/>
    </vehicle>
    <vehicle id="res_motorcycle_int0123" type="res_motorcycle_int0_motorcycle" depart="1771.20" departLane="best" departSpeed="max">
        <route edges="E22 E22.488"/>
    </vehicle>
    <vehicle id="res_motorcycle_int0125" type="res_motorcycle_int0_motorcycle" depart="1800.00" departLane="best" departSpeed="max">
        <route edges="E31 E31.622"/>
    </vehicle>
    <vehicle id="res_motorcycle_int0126" type="res_motorcycle_int0_motorcycle" depart="1814.40" departLane="best" departSpeed="max">
        <route edges="E22 E22.488"/>
    </vehicle>
    <vehicle id="res_motorcycle_int0127" type="res_motorcycle_int0_motorcycle" depart="1828.80" departLane="best" departSpeed="max">
        <route edges="E31 E31.622"/>
    </vehicle>
    <vehicle id="res_motorcycle_int0128" type="res_motorcycle_int0_motorcycle" depart="1843.20" departLane="best" departSpeed="max">
        <route edges="E22 E18.410"/>
    </vehicle>
    <vehicle id="res_motorcycle_int0130" type="res_motorcycle_int0_motorcycle" depart="1872.00" departLane="best" departSpeed="max">
        <route edges="E31 E31.622"/>
    </vehicle>
    <vehicle id="res_motorcycle_int0131" type="res_motorcycle_int0_motorcycle" depart="1886.40" departLane="best" departSpeed="max">
        <route edges="E31 E18.410"/>
    </vehicle>
    <vehicle id="res_motorcycle_int0132" type="res_motorcycle_int0_motorcycle" depart="1900.80" departLane="best" departSpeed="max">
        <route edges="E31 E30.558"/>
    </vehicle>
    <vehicle id="res_motorcycle_int0133" type="res_motorcycle_int0_motorcycle" depart="1915.20" departLane="best" departSpeed="max">
        <route edges="E31 E31.622"/>
    </vehicle>
    <vehicle id="res_motorcycle_int0134" type="res_motorcycle_int0_motorcycle" depart="1929.60" departLane="best" departSpeed="max">
        <route edges="E31 E18.410"/>
    </vehicle>
    <vehicle id="res_motorcycle_int0136" type="res_motorcycle_int0_motorcycle" depart="1958.40" departLane="best" departSpeed="max">
        <route edges="E31 E31.622"/>
    </vehicle>
    <vehicle id="res_motorcycle_int0137" type="res_motorcycle_int0_motorcycle" depart="1972.80" departLane="best" departSpeed="max">
        <route edges="E22 E18.410"/>
    </vehicle>
    <vehicle id="res_motorcycle_int0138" type="res_motorcycle_int0_motorcycle" depart="1987.20" departLane="best" departSpeed="max">
        <route edges="E22 E30.558"/>
    </vehicle>
    <vehicle id="res_motorcycle_int0139" type="res_motorcycle_int0_motorcycle" depart="2001.60" departLane="best" departSpeed="max">
        <route edges="E22 E30.558"/>
    </vehicle>
    <vehicle id="res_motorcycle_int0140" type="res_motorcycle_int0_motorcycle" depart="2016.00" departLane="best" departSpeed="max">
        <route edges="E31 E18.410"/>
    </vehicle>
    <vehicle id="res_motorcycle_int0142" type="res_motorcycle_int0_motorcycle" depart="2044.80" departLane="best" departSpeed="max">
        <route edges="E31 E31.622"/>
    </vehicle>
    <vehicle id="res_motorcycle_int0143" type="res_motorcycle_int0_motorcycle" depart="2059.20" departLane="best" departSpeed="max">
        <route edges="E31 E18.410"/>
    </vehicle>
    <vehicle id="res_motorcycle_int0147" type="res_motorcycle_int0_motorcycle" depart="2116.80" departLane="best" departSpeed="max">
        <route edges="E31 E30.558"/>
    </vehicle>
    <vehicle id="res_motorcycle_int0148" type="res_motorcycle_int0_motorcycle" depart="2131.20" departLane="best" departSpeed="max">
        <route edges="E31 E18.410"/>
    </vehicle>
    <vehicle id="res_motorcycle_int0150" type="res_motorcycle_int0_motorcycle" depart="2160.00" departLane="best" departSpeed="max">
        <route edges="E31 E30.558"/>
    </vehicle>
    <vehicle id="res_motorcycle_int0151" type="res_motorcycle_int0_motorcycle" depart="2174.40" departLane="best" departSpeed="max">
        <route edges="E31 E30.558"/>
    </vehicle>
    <vehicle id="res_motorcycle_int0152" type="res_motorcycle_int0_motorcycle" depart="2188.80" departLane="best" departSpeed="max">
        <route edges="E22 E18.410"/>
    </vehicle>
    <vehicle id="res_motorcycle_int0153" type="res_motorcycle_int0_motorcycle" depart="2203.20" departLane="best" departSpeed="max">
        <route edges="E31 E31.622"/>
    </vehicle>
    <vehicle id="res_motorcycle_int0154" type="res_motorcycle_int0_motorcycle" depart="2217.60" departLane="best" departSpeed="max">
        <route edges="E31 E31.622"/>
    </vehicle>
    <vehicle id="res_motorcycle_int0155" type="res_motorcycle_int0_motorcycle" depart="2232.00" departLane="best" departSpeed="max">
        <route edges="E31 E18.410"/>
    </vehicle>
    <vehicle id="res_motorcycle_int0156" type="res_motorcycle_int0_motorcycle" depart="2246.40" departLane="best" departSpeed="max">
        <route edges="E22 E18.410"/>
    </vehicle>
    <vehicle id="res_motorcycle_int0157" type="res_motorcycle_int0_motorcycle" depart="2260.80" departLane="best" departSpeed="max">
        <route edges="E31 E31.622"/>
    </vehicle>
    <vehicle id="res_motorcycle_int0158" type="res_motorcycle_int0_motorcycle" depart="2275.20" departLane="best" departSpeed="max">
        <route edges="E31 E30.558"/>
    </vehicle>
    <vehicle id="res_motorcycle_int0160" type="res_motorcycle_int0_motorcycle" depart="2304.00" departLane="best" departSpeed="max">
        <route edges="E31 E31.622"/>
    </vehicle>
    <vehicle id="res_motorcycle_int0161" type="res_motorcycle_int0_motorcycle" depart="2318.40" departLane="best" departSpeed="max">
        <route edges="E31 E31.622"/>
    </vehicle>
    <vehicle id="res_motorcycle_int0162" type="res_motorcycle_int0_motorcycle" depart="2332.80" departLane="best" departSpeed="max">
        <route edges="E22 E30.558"/>
    </vehicle>
    <vehicle id="res_motorcycle_int0163" type="res_motorcycle_int0_motorcycle" depart="2347.20" departLane="best" departSpeed="max">
        <route edges="E31 E31.622"/>
    </vehicle>
    <vehicle id="res_motorcycle_int0164" type="res_motorcycle_int0_motorcycle" depart="2361.60" departLane="best" departSpeed="max">
        <route edges="E31 E31.622"/>
    </vehicle>
    <vehicle id="res_motorcycle_int0166" type="res_motorcycle_int0_motorcycle" depart="2390.40" departLane="best" departSpeed="max">
        <route edges="E31 E18.410"/>
    </vehicle>
    <vehicle id="res_motorcycle_int0167" type="res_motorcycle_int0_motorcycle" depart="2404.80" departLane="best" departSpeed="max">
        <route edges="E31 E31.622"/>
    </vehicle>
    <vehicle id="res_motorcycle_int0170" type="res_motorcycle_int0_motorcycle" depart="2448.00" departLane="best" departSpeed="max">
        <route edges="E31 E18.410"/>
    </vehicle>
    <vehicle id="res_motorcycle_int0171" type="res_motorcycle_int0_motorcycle" depart="2462.40" departLane="best" departSpeed="max">
        <route edges="E22 E18.410"/>
    </vehicle>
    <vehicle id="res_motorcycle_int0172" type="res_motorcycle_int0_motorcycle" depart="2476.80" departLane="best" departSpeed="max">
        <route edges="E31 E31.622"/>
    </vehicle>
    <vehicle id="res_motorcycle_int0175" type="res_motorcycle_int0_motorcycle" depart="2520.00" departLane="best" departSpeed="max">
        <route edges="E31 E30.558"/>
    </vehicle>
    <vehicle id="res_motorcycle_int0176" type="res_motorcycle_int0_motorcycle" depart="2534.40" departLane="best" departSpeed="max">
        <route edges="E31 E18.410"/>
    </vehicle>
    <vehicle id="res_motorcycle_int0177" type="res_motorcycle_int0_motorcycle" depart="2548.80" departLane="best" departSpeed="max">
        <route edges="E31 E18.410"/>
    </vehicle>
    <vehicle id="res_motorcycle_int0179" type="res_motorcycle_int0_motorcycle" depart="2577.60" departLane="best" departSpeed="max">
        <route edges="E22 E22.488"/>
    </vehicle>
    <vehicle id="res_motorcycle_int0181" type="res_motorcycle_int0_motorcycle" depart="2606.40" departLane="best" departSpeed="max">
        <route edges="E31 E30.558"/>
    </vehicle>
    <vehicle id="res_motorcycle_int0182" type="res_motorcycle_int0_motorcycle" depart="2620.80" departLane="best" departSpeed="max">
        <route edges="E31 E30.558"/>
    </vehicle>
    <vehicle id="res_motorcycle_int0183" type="res_motorcycle_int0_motorcycle" depart="2635.20" departLane="best" departSpeed="max">
        <route edges="E22 E30.558"/>
    </vehicle>
    <vehicle id="res_motorcycle_int0185" type="res_motorcycle_int0_motorcycle" depart="2664.00" departLane="best" departSpeed="max">
        <route edges="E31 E30.558"/>
    </vehicle>
    <vehicle id="res_motorcycle_int0186" type="res_motorcycle_int0_motorcycle" depart="2678.40" departLane="best" departSpeed="max">
        <route edges="E31 E30.558"/>
    </vehicle>
    <vehicle id="res_motorcycle_int0187" type="res_motorcycle_int0_motorcycle" depart="2692.80" departLane="best" departSpeed="max">
        <route edges="E31 E18.410"/>
    </vehicle>
    <vehicle id="res_motorcycle_int0189" type="res_motorcycle_int0_motorcycle" depart="2721.60" departLane="best" departSpeed="max">
        <route edges="E31 E31.622"/>
    </vehicle>
    <vehicle id="res_motorcycle_int0193" type="res_motorcycle_int0_motorcycle" depart="2779.20" departLane="best" departSpeed="max">
        <route edges="E22 E22.488"/>
    </vehicle>
    <vehicle id="res_motorcycle_int0194" type="res_motorcycle_int0_motorcycle" depart="2793.60" departLane="best" departSpeed="max">
        <route edges="E31 E30.558"/>
    </vehicle>
    <vehicle id="res_motorcycle_int0195" type="res_motorcycle_int0_motorcycle" depart="2808.00" departLane="best" departSpeed="max">
        <route edges="E31 E30.558"/>
    </vehicle>
    <vehicle id="res_motorcycle_int0196" type="res_motorcycle_int0_motorcycle" depart="2822.40" departLane="best" departSpeed="max">
        <route edges="E31 E30.558"/>
    </vehicle>
    <vehicle id="res_motorcycle_int0197" type="res_motorcycle_int0_motorcycle" depart="2836.80" departLane="best" departSpeed="max">
        <route edges="E22 E22.488"/>
    </vehicle>
    <vehicle id="res_motorcycle_int0198" type="res_motorcycle_int0_motorcycle" depart="2851.20" departLane="best" departSpeed="max">
        <route edges="E31 E30.558"/>
    </vehicle>
    <vehicle id="res_motorcycle_int0200" type="res_motorcycle_int0_motorcycle" depart="2880.00" departLane="best" departSpeed="max">
        <route edges="E31 E18.410"/>
    </vehicle>
    <vehicle id="res_motorcycle_int0201" type="res_motorcycle_int0_motorcycle" depart="2894.40" departLane="best" departSpeed="max">
        <route edges="E31 E31.622"/>
    </vehicle>