<routes>

<!-- generated on 2025-08-19 22:58:42.204933 by randomTrips.py UNKNOWN
<configuration>
    <net-file value="osm.net.xml.gz"/>
    <weights-prefix value="random_edge_priority_interval_0"/>
    <output-trip-file value="osm.res_veh.interval_0.trips.xml"/>
    <route-file value="osm.res_veh.interval_0.rou.xml"/>
    <prefix value="res_veh_int0"/>
    <trip-attributes value="departLane=&quot;best&quot;"/>
    <fringe-start-attributes value="departSpeed=&quot;max&quot;"/>
    <vehicle-class value="passenger"/>
    <remove-loops value="True"/>
    <validate value="True"/>
    <verbose value="True"/>
    <insertion-rate value="300.0"/>
</configuration>
-->

<!-- generated on 2025-08-19 22:58:42 by Eclipse SUMO duarouter Version 1.22.0
<duarouterConfiguration xmlns:xsi="http://www.w3.org/2001/XMLSchema-instance" xsi:noNamespaceSchemaLocation="http://sumo.dlr.de/xsd/duarouterConfiguration.xsd">

    <input>
        <net-file value="osm.net.xml.gz"/>
        <route-files value="osm.res_veh.interval_0.trips.xml"/>
    </input>

    <output>
        <output-file value="osm.res_veh.interval_0.trips.xml.tmp"/>
        <alternatives-output value="NUL"/>
        <write-trips value="true"/>
    </output>

    <processing>
        <remove-loops value="true"/>
    </processing>

    <time>
        <begin value="0.0"/>
        <end value="3600.0"/>
    </time>

    <report>
        <verbose value="true"/>
        <ignore-errors value="true"/>
        <no-step-log value="true"/>
    </report>

</duarouterConfiguration>
-->

    <vType id="res_veh_int0_passenger" vClass="passenger"/>
    <trip id="res_veh_int01" type="res_veh_int0_passenger" depart="12.00" departLane="best" departSpeed="max" from="E22" to="E18.410"/>
    <trip id="res_veh_int02" type="res_veh_int0_passenger" depart="24.00" departLane="best" departSpeed="max" from="E30" to="E30.558"/>
    <trip id="res_veh_int04" type="res_veh_int0_passenger" depart="48.00" departLane="best" departSpeed="max" from="E22" to="E18.410"/>
    <trip id="res_veh_int05" type="res_veh_int0_passenger" depart="60.00" departLane="best" departSpeed="max" from="E22" to="E30.558"/>
    <trip id="res_veh_int06" type="res_veh_int0_passenger" depart="72.00" departLane="best" departSpeed="max" from="E22" to="E18.410"/>
    <trip id="res_veh_int07" type="res_veh_int0_passenger" depart="84.00" departLane="best" departSpeed="max" from="E30" to="E30.558"/>
    <trip id="res_veh_int08" type="res_veh_int0_passenger" depart="96.00" departLane="best" departSpeed="max" from="E22" to="E30.558"/>
    <trip id="res_veh_int010" type="res_veh_int0_passenger" depart="120.00" departLane="best" departSpeed="max" from="E30" to="E30.558"/>
    <trip id="res_veh_int011" type="res_veh_int0_passenger" depart="132.00" departLane="best" departSpeed="max" from="E22" to="E18.410"/>
    <trip id="res_veh_int012" type="res_veh_int0_passenger" depart="144.00" departLane="best" departSpeed="max" from="E30" to="E22.488"/>
    <trip id="res_veh_int013" type="res_veh_int0_passenger" depart="156.00" departLane="best" departSpeed="max" from="E22" to="E18.410"/>
    <trip id="res_veh_int014" type="res_veh_int0_passenger" depart="168.00" departLane="best" departSpeed="max" from="E30" to="E30.558"/>
    <trip id="res_veh_int015" type="res_veh_int0_passenger" depart="180.00" departLane="best" departSpeed="max" from="E30" to="E30.558"/>
    <trip id="res_veh_int016" type="res_veh_int0_passenger" depart="192.00" departLane="best" departSpeed="max" from="E30" to="E31.622"/>
    <trip id="res_veh_int017" type="res_veh_int0_passenger" depart="204.00" departLane="best" departSpeed="max" from="E22" to="E30.558"/>
    <trip id="res_veh_int018" type="res_veh_int0_passenger" depart="216.00" departLane="best" departSpeed="max" from="E30" to="E30.558"/>
    <trip id="res_veh_int019" type="res_veh_int0_passenger" depart="228.00" departLane="best" departSpeed="max" from="E30" to="E30.558"/>
    <trip id="res_veh_int021" type="res_veh_int0_passenger" depart="252.00" departLane="best" departSpeed="max" from="E22" to="E22.488"/>
    <trip id="res_veh_int022" type="res_veh_int0_passenger" depart="264.00" departLane="best" departSpeed="max" from="E22" to="E18.410"/>
    <trip id="res_veh_int023" type="res_veh_int0_passenger" depart="276.00" departLane="best" departSpeed="max" from="E22" to="E22.488"/>
    <trip id="res_veh_int024" type="res_veh_int0_passenger" depart="288.00" departLane="best" departSpeed="max" from="E30" to="E22.488"/>
    <trip id="res_veh_int025" type="res_veh_int0_passenger" depart="300.00" departLane="best" departSpeed="max" from="E22" to="E18.410"/>
    <trip id="res_veh_int027" type="res_veh_int0_passenger" depart="324.00" departLane="best" departSpeed="max" from="E30" to="E30.558"/>
    <trip id="res_veh_int028" type="res_veh_int0_passenger" depart="336.00" departLane="best" departSpeed="max" from="E22" to="E30.558"/>
    <trip id="res_veh_int029" type="res_veh_int0_passenger" depart="348.00" departLane="best" departSpeed="max" from="E22" to="E22.488"/>
    <trip id="res_veh_int030" type="res_veh_int0_passenger" depart="360.00" departLane="best" departSpeed="max" from="E31" to="E30.558"/>
    <trip id="res_veh_int031" type="res_veh_int0_passenger" depart="372.00" departLane="best" departSpeed="max" from="E30" to="E30.558"/>
    <trip id="res_veh_int032" type="res_veh_int0_passenger" depart="384.00" departLane="best" departSpeed="max" from="E30" to="E31.622"/>
    <trip id="res_veh_int033" type="res_veh_int0_passenger" depart="396.00" departLane="best" departSpeed="max" from="E22" to="E18.410"/>
    <trip id="res_veh_int034" type="res_veh_int0_passenger" depart="408.00" departLane="best" departSpeed="max" from="E22" to="E22.488"/>
    <trip id="res_veh_int036" type="res_veh_int0_passenger" depart="432.00" departLane="best" departSpeed="max" from="E30" to="E22.488"/>
    <trip id="res_veh_int037" type="res_veh_int0_passenger" depart="444.00" departLane="best" departSpeed="max" from="E30" to="E22.488"/>
    <trip id="res_veh_int038" type="res_veh_int0_passenger" depart="456.00" departLane="best" departSpeed="max" from="E30" to="E22.488"/>
    <trip id="res_veh_int039" type="res_veh_int0_passenger" depart="468.00" departLane="best" departSpeed="max" from="E22" to="E18.410"/>
    <trip id="res_veh_int040" type="res_veh_int0_passenger" depart="480.00" departLane="best" departSpeed="max" from="E30" to="E22.488"/>
    <trip id="res_veh_int041" type="res_veh_int0_passenger" depart="492.00" departLane="best" departSpeed="max" from="E30" to="E31.622"/>
    <trip id="res_veh_int042" type="res_veh_int0_passenger" depart="504.00" departLane="best" departSpeed="max" from="E22" to="E18.410"/>
    <trip id="res_veh_int043" type="res_veh_int0_passenger" depart="516.00" departLane="best" departSpeed="max" from="E31" to="E30.558"/>
    <trip id="res_veh_int044" type="res_veh_int0_passenger" depart="528.00" departLane="best" departSpeed="max" from="E22" to="E18.410"/>
    <trip id="res_veh_int045" type="res_veh_int0_passenger" depart="540.00" departLane="best" departSpeed="max" from="E22" to="E30.558"/>
    <trip id="res_veh_int046" type="res_veh_int0_passenger" depart="552.00" departLane="best" departSpeed="max" from="E30" to="E22.488"/>
    <trip id="res_veh_int047" type="res_veh_int0_passenger" depart="564.00" departLane="best" departSpeed="max" from="E22" to="E22.488"/>
    <trip id="res_veh_int048" type="res_veh_int0_passenger" depart="576.00" departLane="best" departSpeed="max" from="E31" to="E30.558"/>
    <trip id="res_veh_int049" type="res_veh_int0_passenger" depart="588.00" departLane="best" departSpeed="max" from="E30" to="E31.622"/>
    <trip id="res_veh_int051" type="res_veh_int0_passenger" depart="612.00" departLane="best" departSpeed="max" from="E30" to="E30.558"/>
    <trip id="res_veh_int052" type="res_veh_int0_passenger" depart="624.00" departLane="best" departSpeed="max" from="E22" to="E30.558"/>
    <trip id="res_veh_int053" type="res_veh_int0_passenger" depart="636.00" departLane="best" departSpeed="max" from="E22" to="E22.488"/>
    <trip id="res_veh_int055" type="res_veh_int0_passenger" depart="660.00" departLane="best" departSpeed="max" from="E30" to="E22.488"/>
    <trip id="res_veh_int057" type="res_veh_int0_passenger" depart="684.00" departLane="best" departSpeed="max" from="E30" to="E31.622"/>
    <trip id="res_veh_int058" type="res_veh_int0_passenger" depart="696.00" departLane="best" departSpeed="max" from="E22" to="E30.558"/>
    <trip id="res_veh_int060" type="res_veh_int0_passenger" depart="720.00" departLane="best" departSpeed="max" from="E30" to="E30.558"/>
    <trip id="res_veh_int061" type="res_veh_int0_passenger" depart="732.00" departLane="best" departSpeed="max" from="E30" to="E30.558"/>
    <trip id="res_veh_int062" type="res_veh_int0_passenger" depart="744.00" departLane="best" departSpeed="max" from="E18" to="E22.488"/>
    <trip id="res_veh_int063" type="res_veh_int0_passenger" depart="756.00" departLane="best" departSpeed="max" from="E18" to="E31.622"/>
    <trip id="res_veh_int064" type="res_veh_int0_passenger" depart="768.00" departLane="best" departSpeed="max" from="E30" to="E31.622"/>
    <trip id="res_veh_int065" type="res_veh_int0_passenger" depart="780.00" departLane="best" departSpeed="max" from="E22" to="E18.410"/>
    <trip id="res_veh_int066" type="res_veh_int0_passenger" depart="792.00" departLane="best" departSpeed="max" from="E30" to="E31.622"/>
    <trip id="res_veh_int067" type="res_veh_int0_passenger" depart="804.00" departLane="best" departSpeed="max" from="E22" to="E22.488"/>
    <trip id="res_veh_int070" type="res_veh_int0_passenger" depart="840.00" departLane="best" departSpeed="max" from="E22" to="E30.558"/>
    <trip id="res_veh_int072" type="res_veh_int0_passenger" depart="864.00" departLane="best" departSpeed="max" from="E22" to="E18.410"/>
    <trip id="res_veh_int073" type="res_veh_int0_passenger" depart="876.00" departLane="best" departSpeed="max" from="E30" to="E30.558"/>
    <trip id="res_veh_int074" type="res_veh_int0_passenger" depart="888.00" departLane="best" departSpeed="max" from="E22" to="E22.488"/>
    <trip id="res_veh_int075" type="res_veh_int0_passenger" depart="900.00" departLane="best" departSpeed="max" from="E31" to="E30.558"/>
    <trip id="res_veh_int076" type="res_veh_int0_passenger" depart="912.00" departLane="best" departSpeed="max" from="E22" to="E30.558"/>
    <trip id="res_veh_int077" type="res_veh_int0_passenger" depart="924.00" departLane="best" departSpeed="max" from="E22" to="E18.410"/>
    <trip id="res_veh_int078" type="res_veh_int0_passenger" depart="936.00" departLane="best" departSpeed="max" from="E22" to="E30.558"/>
    <trip id="res_veh_int079" type="res_veh_int0_passenger" depart="948.00" departLane="best" departSpeed="max" from="E22" to="E18.410"/>
    <trip id="res_veh_int080" type="res_veh_int0_passenger" depart="960.00" departLane="best" departSpeed="max" from="E22" to="E30.558"/>
    <trip id="res_veh_int083" type="res_veh_int0_passenger" depart="996.00" departLane="best" departSpeed="max" from="E22" to="E30.558"/>
    <trip id="res_veh_int084" type="res_veh_int0_passenger" depart="1008.00" departLane="best" departSpeed="max" from="E22" to="E18.410"/>
    <trip id="res_veh_int085" type="res_veh_int0_passenger" depart="1020.00" departLane="best" departSpeed="max" from="E30" to="E30.558"/>
    <trip id="res_veh_int088" type="res_veh_int0_passenger" depart="1056.00" departLane="best" departSpeed="max" from="E22" to="E22.488"/>
    <trip id="res_veh_int089" type="res_veh_int0_passenger" depart="1068.00" departLane="best" departSpeed="max" from="E22" to="E22.488"/>
    <trip id="res_veh_int090" type="res_veh_int0_passenger" depart="1080.00" departLane="best" departSpeed="max" from="E30" to="E30.558"/>
    <trip id="res_veh_int091" type="res_veh_int0_passenger" depart="1092.00" departLane="best" departSpeed="max" from="E31" to="E18.410"/>
    <trip id="res_veh_int092" type="res_veh_int0_passenger" depart="1104.00" departLane="best" departSpeed="max" from="E22" to="E22.488"/>
    <trip id="res_veh_int094" type="res_veh_int0_passenger" depart="1128.00" departLane="best" departSpeed="max" from="E22" to="E22.488"/>
    <trip id="res_veh_int095" type="res_veh_int0_passenger" depart="1140.00" departLane="best" departSpeed="max" from="E22" to="E22.488"/>
    <trip id="res_veh_int099" type="res_veh_int0_passenger" depart="1188.00" departLane="best" departSpeed="max" from="E31" to="E31.622"/>
    <trip id="res_veh_int0100" type="res_veh_int0_passenger" depart="1200.00" departLane="best" departSpeed="max" from="E30" to="E31.622"/>
    <trip id="res_veh_int0103" type="res_veh_int0_passenger" depart="1236.00" departLane="best" departSpeed="max" from="E22" to="E18.410"/>
    <trip id="res_veh_int0106" type="res_veh_int0_passenger" depart="1272.00" departLane="best" departSpeed="max" from="E22" to="E22.488"/>
    <trip id="res_veh_int0107" type="res_veh_int0_passenger" depart="1284.00" departLane="best" departSpeed="max" from="E30" to="E31.622"/>
    <trip id="res_veh_int0108" type="res_veh_int0_passenger" depart="1296.00" departLane="best" departSpeed="max" from="E30" to="E30.558"/>
    <trip id="res_veh_int0109" type="res_veh_int0_passenger" depart="1308.00" departLane="best" departSpeed="max" from="E22" to="E22.488"/>
    <trip id="res_veh_int0110" type="res_veh_int0_passenger" depart="1320.00" departLane="best" departSpeed="max" from="E30" to="E30.558"/>
    <trip id="res_veh_int0111" type="res_veh_int0_passenger" depart="1332.00" departLane="best" departSpeed="max" from="E30" to="E30.558"/>
    <trip id="res_veh_int0112" type="res_veh_int0_passenger" depart="1344.00" departLane="best" departSpeed="max" from="E22" to="E30.558"/>
    <trip id="res_veh_int0113" type="res_veh_int0_passenger" depart="1356.00" departLane="best" departSpeed="max" from="E30" to="E31.622"/>
    <trip id="res_veh_int0115" type="res_veh_int0_passenger" depart="1380.00" departLane="best" departSpeed="max" from="E22" to="E18.410"/>
    <trip id="res_veh_int0116" type="res_veh_int0_passenger" depart="1392.00" departLane="best" departSpeed="max" from="E30" to="E30.558"/>
    <trip id="res_veh_int0117" type="res_veh_int0_passenger" depart="1404.00" departLane="best" departSpeed="max" from="E22" to="E18.410"/>
    <trip id="res_veh_int0119" type="res_veh_int0_passenger" depart="1428.00" departLane="best" departSpeed="max" from="E30" to="E30.558"/>
    <trip id="res_veh_int0120" type="res_veh_int0_passenger" depart="1440.00" departLane="best" departSpeed="max" from="E22" to="E30.558"/>
    <trip id="res_veh_int0121" type="res_veh_int0_passenger" depart="1452.00" departLane="best" departSpeed="max" from="E30" to="E31.622"/>
    <trip id="res_veh_int0122" type="res_veh_int0_passenger" depart="1464.00" departLane="best" departSpeed="max" from="E22" to="E30.558"/>
    <trip id="res_veh_int0123" type="res_veh_int0_passenger" depart="1476.00" departLane="best" departSpeed="max" from="E22" to="E22.488"/>
    <trip id="res_veh_int0124" type="res_veh_int0_passenger" depart="1488.00" departLane="best" departSpeed="max" from="E30" to="E22.488"/>
    <trip id="res_veh_int0126" type="res_veh_int0_passenger" depart="1512.00" departLane="best" departSpeed="max" from="E22" to="E22.488"/>
    <trip id="res_veh_int0127" type="res_veh_int0_passenger" depart="1524.00" departLane="best" departSpeed="max" from="E31" to="E31.622"/>
    <trip id="res_veh_int0128" type="res_veh_int0_passenger" depart="1536.00" departLane="best" departSpeed="max" from="E22" to="E18.410"/>
    <trip id="res_veh_int0130" type="res_veh_int0_passenger" depart="1560.00" departLane="best" departSpeed="max" from="E30" to="E31.622"/>
    <trip id="res_veh_int0131" type="res_veh_int0_passenger" depart="1572.00" departLane="best" departSpeed="max" from="E22" to="E18.410"/>
    <trip id="res_veh_int0132" type="res_veh_int0_passenger" depart="1584.00" departLane="best" departSpeed="max" from="E30" to="E30.558"/>
    <trip id="res_veh_int0133" type="res_veh_int0_passenger" depart="1596.00" departLane="best" departSpeed="max" from="E30" to="E31.622"/>
    <trip id="res_veh_int0135" type="res_veh_int0_passenger" depart="1620.00" departLane="best" departSpeed="max" from="E30" to="E22.488"/>
    <trip id="res_veh_int0136" type="res_veh_int0_passenger" depart="1632.00" departLane="best" departSpeed="max" from="E30" to="E31.622"/>
    <trip id="res_veh_int0137" type="res_veh_int0_passenger" depart="1644.00" departLane="best" departSpeed="max" from="E22" to="E18.410"/>
    <trip id="res_veh_int0138" type="res_veh_int0_passenger" depart="1656.00" departLane="best" departSpeed="max" from="E22" to="E30.558"/>
    <trip id="res_veh_int0139" type="res_veh_int0_passenger" depart="1668.00" departLane="best" departSpeed="max" from="E22" to="E30.558"/>
    <trip id="res_veh_int0141" type="res_veh_int0_passenger" depart="1692.00" departLane="best" departSpeed="max" from="E30" to="E22.488"/>
    <trip id="res_veh_int0142" type="res_veh_int0_passenger" depart="1704.00" departLane="best" departSpeed="max" from="E30" to="E31.622"/>
    <trip id="res_veh_int0144" type="res_veh_int0_passenger" depart="1728.00" departLane="best" departSpeed="max" from="E22" to="E22.488"/>
    <trip id="res_veh_int0145" type="res_veh_int0_passenger" depart="1740.00" departLane="best" departSpeed="max" from="E18" to="E31.622"/>
    <trip id="res_veh_int0146" type="res_veh_int0_passenger" depart="1752.00" departLane="best" departSpeed="max" from="E30" to="E22.488"/>
    <trip id="res_veh_int0147" type="res_veh_int0_passenger" depart="1764.00" departLane="best" departSpeed="max" from="E30" to="E30.558"/>
    <trip id="res_veh_int0148" type="res_veh_int0_passenger" depart="1776.00" departLane="best" departSpeed="max" from="E22" to="E18.410"/>
    <trip id="res_veh_int0150" type="res_veh_int0_passenger" depart="1800.00" departLane="best" departSpeed="max" from="E30" to="E30.558"/>
    <trip id="res_veh_int0151" type="res_veh_int0_passenger" depart="1812.00" departLane="best" departSpeed="max" from="E30" to="E30.558"/>
    <trip id="res_veh_int0152" type="res_veh_int0_passenger" depart="1824.00" departLane="best" departSpeed="max" from="E22" to="E18.410"/>
    <trip id="res_veh_int0154" type="res_veh_int0_passenger" depart="1848.00" departLane="best" departSpeed="max" from="E30" to="E31.622"/>
    <trip id="res_veh_int0156" type="res_veh_int0_passenger" depart="1872.00" departLane="best" departSpeed="max" from="E22" to="E18.410"/>
    <trip id="res_veh_int0157" type="res_veh_int0_passenger" depart="1884.00" departLane="best" departSpeed="max" from="E30" to="E31.622"/>
    <trip id="res_veh_int0158" type="res_veh_int0_passenger" depart="1896.00" departLane="best" departSpeed="max" from="E22" to="E30.558"/>
    <trip id="res_veh_int0160" type="res_veh_int0_passenger" depart="1920.00" departLane="best" departSpeed="max" from="E30" to="E31.622"/>
    <trip id="res_veh_int0161" type="res_veh_int0_passenger" depart="1932.00" departLane="best" departSpeed="max" from="E30" to="E31.622"/>
    <trip id="res_veh_int0162" type="res_veh_int0_passenger" depart="1944.00" departLane="best" departSpeed="max" from="E22" to="E30.558"/>
    <trip id="res_veh_int0164" type="res_veh_int0_passenger" depart="1968.00" departLane="best" departSpeed="max" from="E30" to="E31.622"/>
    <trip id="res_veh_int0165" type="res_veh_int0_passenger" depart="1980.00" departLane="best" departSpeed="max" from="E30" to="E22.488"/>
    <trip id="res_veh_int0167" type="res_veh_int0_passenger" depart="2004.00" departLane="best" departSpeed="max" from="E30" to="E31.622"/>
    <trip id="res_veh_int0169" type="res_veh_int0_passenger" depart="2028.00" departLane="best" departSpeed="max" from="E22" to="E22.488"/>
    <trip id="res_veh_int0171" type="res_veh_int0_passenger" depart="2052.00" departLane="best" departSpeed="max" from="E22" to="E18.410"/>
    <trip id="res_veh_int0173" type="res_veh_int0_passenger" depart="2076.00" departLane="best" departSpeed="max" from="E30" to="E22.488"/>
    <trip id="res_veh_int0174" type="res_veh_int0_passenger" depart="2088.00" departLane="best" departSpeed="max" from="E30" to="E22.488"/>
    <trip id="res_veh_int0175" type="res_veh_int0_passenger" depart="2100.00" departLane="best" departSpeed="max" from="E31" to="E30.558"/>
    <trip id="res_veh_int0178" type="res_veh_int0_passenger" depart="2136.00" departLane="best" departSpeed="max" from="E30" to="E22.488"/>
    <trip id="res_veh_int0179" type="res_veh_int0_passenger" depart="2148.00" departLane="best" departSpeed="max" from="E22" to="E22.488"/>
    <trip id="res_veh_int0180" type="res_veh_int0_passenger" depart="2160.00" departLane="best" departSpeed="max" from="E30" to="E22.488"/>
    <trip id="res_veh_int0181" type="res_veh_int0_passenger" depart="2172.00" departLane="best" departSpeed="max" from="E30" to="E30.558"/>
    <trip id="res_veh_int0182" type="res_veh_int0_passenger" depart="2184.00" departLane="best" departSpeed="max" from="E22" to="E30.558"/>
    <trip id="res_veh_int0183" type="res_veh_int0_passenger" depart="2196.00" departLane="best" departSpeed="max" from="E22" to="E30.558"/>
    <trip id="res_veh_int0184" type="res_veh_int0_passenger" depart="2208.00" departLane="best" departSpeed="max" from="E18" to="E31.622"/>
    <trip id="res_veh_int0185" type="res_veh_int0_passenger" depart="2220.00" departLane="best" departSpeed="max" from="E30" to="E30.558"/>
    <trip id="res_veh_int0186" type="res_veh_int0_passenger" depart="2232.00" departLane="best" departSpeed="max" from="E30" to="E30.558"/>
    <trip id="res_veh_int0187" type="res_veh_int0_passenger" depart="2244.00" departLane="best" departSpeed="max" from="E22" to="E18.410"/>
    <trip id="res_veh_int0188" type="res_veh_int0_passenger" depart="2256.00" departLane="best" departSpeed="max" from="E30" to="E22.488"/>
    <trip id="res_veh_int0190" type="res_veh_int0_passenger" depart="2280.00" departLane="best" departSpeed="max" from="E30" to="E22.488"/>
    <trip id="res_veh_int0191" type="res_veh_int0_passenger" depart="2292.00" departLane="best" departSpeed="max" from="E22" to="E22.488"/>
    <trip id="res_veh_int0192" type="res_veh_int0_passenger" depart="2304.00" departLane="best" departSpeed="max" from="E22" to="E22.488"/>
    <trip id="res_veh_int0193" type="res_veh_int0_passenger" depart="2316.00" departLane="best" departSpeed="max" from="E22" to="E22.488"/>
    <trip id="res_veh_int0194" type="res_veh_int0_passenger" depart="2328.00" departLane="best" departSpeed="max" from="E30" to="E30.558"/>
    <trip id="res_veh_int0195" type="res_veh_int0_passenger" depart="2340.00" departLane="best" departSpeed="max" from="E30" to="E30.558"/>
    <trip id="res_veh_int0196" type="res_veh_int0_passenger" depart="2352.00" departLane="best" departSpeed="max" from="E22" to="E30.558"/>
    <trip id="res_veh_int0197" type="res_veh_int0_passenger" depart="2364.00" departLane="best" departSpeed="max" from="E18" to="E22.488"/>
    <trip id="res_veh_int0198" type="res_veh_int0_passenger" depart="2376.00" departLane="best" departSpeed="max" from="E22" to="E30.558"/>
    <trip id="res_veh_int0199" type="res_veh_int0_passenger" depart="2388.00" departLane="best" departSpeed="max" from="E30" to="E22.488"/>
    <trip id="res_veh_int0200" type="res_veh_int0_passenger" depart="2400.00" departLane="best" departSpeed="max" from="E22" to="E18.410"/>
    <trip id="res_veh_int0203" type="res_veh_int0_passenger" depart="2436.00" departLane="best" departSpeed="max" from="E22" to="E30.558"/>
    <trip id="res_veh_int0204" type="res_veh_int0_passenger" depart="2448.00" departLane="best" departSpeed="max" from="E30" to="E22.488"/>
    <trip id="res_veh_int0205" type="res_veh_int0_passenger" depart="2460.00" departLane="best" departSpeed="max" from="E30" to="E31.622"/>
    <trip id="res_veh_int0207" type="res_veh_int0_passenger" depart="2484.00" departLane="best" departSpeed="max" from="E22" to="E18.410"/>
    <trip id="res_veh_int0208" type="res_veh_int0_passenger" depart="2496.00" departLane="best" departSpeed="max" from="E22" to="E22.488"/>
    <trip id="res_veh_int0210" type="res_veh_int0_passenger" depart="2520.00" departLane="best" departSpeed="max" from="E22" to="E30.558"/>
    <trip id="res_veh_int0211" type="res_veh_int0_passenger" depart="2532.00" departLane="best" departSpeed="max" from="E22" to="E30.558"/>
    <trip id="res_veh_int0214" type="res_veh_int0_passenger" depart="2568.00" departLane="best" departSpeed="max" from="E30" to="E31.622"/>
    <trip id="res_veh_int0215" type="res_veh_int0_passenger" depart="2580.00" departLane="best" departSpeed="max" from="E22" to="E22.488"/>
    <trip id="res_veh_int0220" type="res_veh_int0_passenger" depart="2640.00" departLane="best" departSpeed="max" from="E30" to="E31.622"/>
    <trip id="res_veh_int0221" type="res_veh_int0_passenger" depart="2652.00" departLane="best" departSpeed="max" from="E30" to="E31.622"/>
    <trip id="res_veh_int0222" type="res_veh_int0_passenger" depart="2664.00" departLane="best" departSpeed="max" from="E30" to="E30.558"/>
    <trip id="res_veh_int0223" type="res_veh_int0_passenger" depart="2676.00" departLane="best" departSpeed="max" from="E30" to="E30.558"/>
    <trip id="res_veh_int0224" type="res_veh_int0_passenger" depart="2688.00" departLane="best" departSpeed="max" from="E30" to="E30.558"/>
    <trip id="res_veh_int0225" type="res_veh_int0_passenger" depart="2700.00" departLane="best" departSpeed="max" from="E30" to="E30.558"/>
    <trip id="res_veh_int0226" type="res_veh_int0_passenger" depart="2712.00" departLane="best" departSpeed="max" from="E22" to="E22.488"/>
    <trip id="res_veh_int0227" type="res_veh_int0_passenger" depart="2724.00" departLane="best" departSpeed="max" from="E22" to="E30.558"/>
    <trip id="res_veh_int0228" type="res_veh_int0_passenger" depart="2736.00" departLane="best" departSpeed="max" from="E30" to="E30.558"/>
    <trip id="res_veh_int0229" type="res_veh_int0_passenger" depart="2748.00" departLane="best" departSpeed="max" from="E30" to="E22.488"/>
    <trip id="res_veh_int0230" type="res_veh_int0_passenger" depart="2760.00" departLane="best" departSpeed="max" from="E22" to="E22.488"/>
    <trip id="res_veh_int0231" type="res_veh_int0_passenger" depart="2772.00" departLane="best" departSpeed="max" from="E22" to="E22.488"/>
    <trip id="res_veh_int0233" type="res_veh_int0_passenger" depart="2796.00" departLane="best" departSpeed="max" from="E22" to="E30.558"/>
    <trip id="res_veh_int0235" type="res_veh_int0_passenger" depart="2820.00" departLane="best" departSpeed="max" from="E22" to="E30.558"/>
    <trip id="res_veh_int0236" type="res_veh_int0_passenger" depart="2832.00" departLane="best" departSpeed="max" from="E22" to="E18.410"/>
    <trip id="res_veh_int0238" type="res_veh_int0_passenger" depart="2856.00" departLane="best" departSpeed="max" from="E30" to="E30.558"/>
    <trip id="res_veh_int0239" type="res_veh_int0_passenger" depart="2868.00" departLane="best" departSpeed="max" from="E30" to="E31.622"/>
    <trip id="res_veh_int0240" type="res_veh_int0_passenger" depart="2880.00" departLane="best" departSpeed="max" from="E22" to="E18.410"/>
    <trip id="res_veh_int0242" type="res_veh_int0_passenger" depart="2904.00" departLane="best" departSpeed="max" from="E30" to="E31.622"/>
    <trip id="res_veh_int0243" type="res_veh_int0_passenger" depart="2916.00" departLane="best" departSpeed="max" from="E22" to="E30.558"/>
    <trip id="res_veh_int0244" type="res_veh_int0_passenger" depart="2928.00" departLane="best" departSpeed="max" from="E30" to="E30.558"/>
    <trip id="res_veh_int0245" type="res_veh_int0_passenger" depart="2940.00" departLane="best" departSpeed="max" from="E22" to="E18.410"/>
    <trip id="res_veh_int0246" type="res_veh_int0_passenger" depart="2952.00" departLane="best" departSpeed="max" from="E22" to="E18.410"/>
    <trip id="res_veh_int0247" type="res_veh_int0_passenger" depart="2964.00" departLane="best" departSpeed="max" from="E22" to="E30.558"/>
    <trip id="res_veh_int0248" type="res_veh_int0_passenger" depart="2976.00" departLane="best" departSpeed="max" from="E22" to="E18.410"/>
    <trip id="res_veh_int0249" type="res_veh_int0_passenger" depart="2988.00" departLane="best" departSpeed="max" from="E22" to="E18.410"/>
    <trip id="res_veh_int0251" type="res_veh_int0_passenger" depart="3012.00" departLane="best" departSpeed="max" from="E22" to="E30.558"/>
    <trip id="res_veh_int0252" type="res_veh_int0_passenger" depart="3024.00" departLane="best" departSpeed="max" from="E22" to="E30.558"/>
    <trip id="res_veh_int0253" type="res_veh_int0_passenger" depart="3036.00" departLane="best" departSpeed="max" from="E22" to="E22.488"/>
    <trip id="res_veh_int0254" type="res_veh_int0_passenger" depart="3048.00" departLane="best" departSpeed="max" from="E22" to="E22.488"/>
    <trip id="res_veh_int0255" type="res_veh_int0_passenger" depart="3060.00" departLane="best" departSpeed="max" from="E22" to="E22.488"/>
    <trip id="res_veh_int0256" type="res_veh_int0_passenger" depart="3072.00" departLane="best" departSpeed="max" from="E30" to="E22.488"/>
    <trip id="res_veh_int0257" type="res_veh_int0_passenger" depart="3084.00" departLane="best" departSpeed="max" from="E30" to="E31.622"/>
    <trip id="res_veh_int0258" type="res_veh_int0_passenger" depart="3096.00" departLane="best" departSpeed="max" from="E22" to="E18.410"/>
    <trip id="res_veh_int0261" type="res_veh_int0_passenger" depart="3132.00" departLane="best" departSpeed="max" from="E30" to="E31.622"/>
    <trip id="res_veh_int0262" type="res_veh_int0_passenger" depart="3144.00" departLane="best" departSpeed="max" from="E30" to="E31.622"/>
    <trip id="res_veh_int0264" type="res_veh_int0_passenger" depart="3168.00" departLane="best" departSpeed="max" from="E22" to="E18.410"/>
    <trip id="res_veh_int0265" type="res_veh_int0_passenger" depart="3180.00" departLane="best" departSpeed="max" from="E22" to="E30.558"/>