<routes>

<!-- generated on 2025-08-19 23:27:59.570349 by randomTrips.py UNKNOWN
<configuration>
    <net-file value="osm.net.xml.gz"/>
    <weights-prefix value="random_edge_priority_interval_0"/>
    <output-trip-file value="osm.res_bike.interval_0.trips.xml"/>
    <route-file value="osm.res_bike.interval_0.rou.xml"/>
    <prefix value="res_bike_int0"/>
    <trip-attributes value="departLane=&quot;best&quot;"/>
    <fringe-start-attributes value="departSpeed=&quot;max&quot;"/>
    <vehicle-class value="bicycle"/>
    <vclass value="bicycle"/>
    <remove-loops value="True"/>
    <validate value="True"/>
    <verbose value="True"/>
    <insertion-rate value="125.0"/>
</configuration>
-->

<!-- generated on 2025-08-19 23:27:59 by Eclipse SUMO duarouter Version 1.22.0
<duarouterConfiguration xmlns:xsi="http://www.w3.org/2001/XMLSchema-instance" xsi:noNamespaceSchemaLocation="http://sumo.dlr.de/xsd/duarouterConfiguration.xsd">

    <input>
        <net-file value="osm.net.xml.gz"/>
        <route-files value="osm.res_bike.interval_0.trips.xml"/>
    </input>

    <output>
        <output-file value="osm.res_bike.interval_0.trips.xml.tmp"/>
        <alternatives-output value="NUL"/>
        <write-trips value="true"/>
    </output>

    <processing>
        <remove-loops value="true"/>
    </processing>

    <time>
        <begin value="0.0"/>
        <end value="3600.0"/>
    </time>

    <report>
        <verbose value="true"/>
        <ignore-errors value="true"/>
        <no-step-log value="true"/>
    </report>

</duarouterConfiguration>
-->

    <vType id="res_bike_int0_bicycle" vClass="bicycle"/>
    <trip id="res_bike_int01" type="res_bike_int0_bicycle" depart="28.80" departLane="best" departSpeed="max" from="E18" to="E18.410"/>
    <trip id="res_bike_int02" type="res_bike_int0_bicycle" depart="57.60" departLane="best" departSpeed="max" from="E31" to="E30.558"/>
    <trip id="res_bike_int03" type="res_bike_int0_bicycle" depart="86.40" departLane="best" departSpeed="max" from="E31" to="E18.410"/>
    <trip id="res_bike_int04" type="res_bike_int0_bicycle" depart="115.20" departLane="best" departSpeed="max" from="E22" to="E18.410"/>
    <trip id="res_bike_int06" type="res_bike_int0_bicycle" depart="172.80" departLane="best" departSpeed="max" from="E18" to="E18.410"/>
    <trip id="res_bike_int07" type="res_bike_int0_bicycle" depart="201.60" departLane="best" departSpeed="max" from="E30" to="E30.558"/>
    <trip id="res_bike_int09" type="res_bike_int0_bicycle" depart="259.20" departLane="best" departSpeed="max" from="E31" to="E18.410"/>
    <trip id="res_bike_int010" type="res_bike_int0_bicycle" depart="288.00" departLane="best" departSpeed="max" from="E31" to="E30.558"/>
    <trip id="res_bike_int011" type="res_bike_int0_bicycle" depart="316.80" departLane="best" departSpeed="max" from="E22" to="E18.410"/>
    <trip id="res_bike_int013" type="res_bike_int0_bicycle" depart="374.40" departLane="best" departSpeed="max" from="E18" to="E18.410"/>
    <trip id="res_bike_int014" type="res_bike_int0_bicycle" depart="403.20" departLane="best" departSpeed="max" from="E31" to="E30.558"/>
    <trip id="res_bike_int015" type="res_bike_int0_bicycle" depart="432.00" departLane="best" departSpeed="max" from="E31" to="E30.558"/>
    <trip id="res_bike_int017" type="res_bike_int0_bicycle" depart="489.60" departLane="best" departSpeed="max" from="E22" to="E30.558"/>
    <trip id="res_bike_int018" type="res_bike_int0_bicycle" depart="518.40" departLane="best" departSpeed="max" from="E31" to="E30.558"/>
    <trip id="res_bike_int019" type="res_bike_int0_bicycle" depart="547.20" departLane="best" departSpeed="max" from="E31" to="E30.558"/>
    <trip id="res_bike_int020" type="res_bike_int0_bicycle" depart="576.00" departLane="best" departSpeed="max" from="E31" to="E18.410"/>
    <trip id="res_bike_int021" type="res_bike_int0_bicycle" depart="604.80" departLane="best" departSpeed="max" from="E18" to="E22.488"/>
    <trip id="res_bike_int022" type="res_bike_int0_bicycle" depart="633.60" departLane="best" departSpeed="max" from="E18" to="E18.410"/>
    <trip id="res_bike_int023" type="res_bike_int0_bicycle" depart="662.40" departLane="best" departSpeed="max" from="E18" to="E22.488"/>
    <trip id="res_bike_int024" type="res_bike_int0_bicycle" depart="691.20" departLane="best" departSpeed="max" from="E30" to="E22.488"/>
    <trip id="res_bike_int025" type="res_bike_int0_bicycle" depart="720.00" departLane="best" departSpeed="max" from="E22" to="E18.410"/>
    <trip id="res_bike_int026" type="res_bike_int0_bicycle" depart="748.80" departLane="best" departSpeed="max" from="E18" to="E31.622"/>
    <trip id="res_bike_int027" type="res_bike_int0_bicycle" depart="777.60" departLane="best" departSpeed="max" from="E30" to="E30.558"/>
    <trip id="res_bike_int029" type="res_bike_int0_bicycle" depart="835.20" departLane="best" departSpeed="max" from="E18" to="E22.488"/>
    <trip id="res_bike_int030" type="res_bike_int0_bicycle" depart="864.00" departLane="best" departSpeed="max" from="E31" to="E30.558"/>
    <trip id="res_bike_int031" type="res_bike_int0_bicycle" depart="892.80" departLane="best" departSpeed="max" from="E22" to="E30.558"/>
    <trip id="res_bike_int032" type="res_bike_int0_bicycle" depart="921.60" departLane="best" departSpeed="max" from="E31" to="E31.622"/>
    <trip id="res_bike_int033" type="res_bike_int0_bicycle" depart="950.40" departLane="best" departSpeed="max" from="E18" to="E18.410"/>
    <trip id="res_bike_int034" type="res_bike_int0_bicycle" depart="979.20" departLane="best" departSpeed="max" from="E18" to="E22.488"/>
    <trip id="res_bike_int035" type="res_bike_int0_bicycle" depart="1008.00" departLane="best" departSpeed="max" from="E18" to="E31.622"/>
    <trip id="res_bike_int037" type="res_bike_int0_bicycle" depart="1065.60" departLane="best" departSpeed="max" from="E30" to="E22.488"/>
    <trip id="res_bike_int039" type="res_bike_int0_bicycle" depart="1123.20" departLane="best" departSpeed="max" from="E18" to="E18.410"/>
    <trip id="res_bike_int040" type="res_bike_int0_bicycle" depart="1152.00" departLane="best" departSpeed="max" from="E22" to="E22.488"/>
    <trip id="res_bike_int042" type="res_bike_int0_bicycle" depart="1209.60" departLane="best" departSpeed="max" from="E22" to="E18.410"/>
    <trip id="res_bike_int043" type="res_bike_int0_bicycle" depart="1238.40" departLane="best" departSpeed="max" from="E31" to="E30.558"/>
    <trip id="res_bike_int044" type="res_bike_int0_bicycle" depart="1267.20" departLane="best" departSpeed="max" from="E18" to="E18.410"/>
    <trip id="res_bike_int047" type="res_bike_int0_bicycle" depart="1353.60" departLane="best" departSpeed="max" from="E18" to="E22.488"/>
    <trip id="res_bike_int048" type="res_bike_int0_bicycle" depart="1382.40" departLane="best" departSpeed="max" from="E31" to="E30.558"/>
    <trip id="res_bike_int049" type="res_bike_int0_bicycle" depart="1411.20" departLane="best" departSpeed="max" from="E31" to="E31.622"/>
    <trip id="res_bike_int051" type="res_bike_int0_bicycle" depart="1468.80" departLane="best" departSpeed="max" from="E31" to="E30.558"/>
    <trip id="res_bike_int053" type="res_bike_int0_bicycle" depart="1526.40" departLane="best" departSpeed="max" from="E18" to="E22.488"/>
    <trip id="res_bike_int056" type="res_bike_int0_bicycle" depart="1612.80" departLane="best" departSpeed="max" from="E22" to="E18.410"/>
    <trip id="res_bike_int057" type="res_bike_int0_bicycle" depart="1641.60" departLane="best" departSpeed="max" from="E31" to="E31.622"/>
    <trip id="res_bike_int060" type="res_bike_int0_bicycle" depart="1728.00" departLane="best" departSpeed="max" from="E31" to="E30.558"/>
    <trip id="res_bike_int061" type="res_bike_int0_bicycle" depart="1756.80" departLane="best" departSpeed="max" from="E31" to="E30.558"/>
    <trip id="res_bike_int062" type="res_bike_int0_bicycle" depart="1785.60" departLane="best" departSpeed="max" from="E18" to="E22.488"/>
    <trip id="res_bike_int063" type="res_bike_int0_bicycle" depart="1814.40" departLane="best" departSpeed="max" from="E18" to="E31.622"/>
    <trip id="res_bike_int064" type="res_bike_int0_bicycle" depart="1843.20" departLane="best" departSpeed="max" from="E31" to="E31.622"/>
    <trip id="res_bike_int065" type="res_bike_int0_bicycle" depart="1872.00" departLane="best" departSpeed="max" from="E18" to="E18.410"/>
    <trip id="res_bike_int066" type="res_bike_int0_bicycle" depart="1900.80" departLane="best" departSpeed="max" from="E31" to="E31.622"/>
    <trip id="res_bike_int067" type="res_bike_int0_bicycle" depart="1929.60" departLane="best" departSpeed="max" from="E18" to="E22.488"/>
    <trip id="res_bike_int068" type="res_bike_int0_bicycle" depart="1958.40" departLane="best" departSpeed="max" from="E18" to="E31.622"/>
    <trip id="res_bike_int069" type="res_bike_int0_bicycle" depart="1987.20" departLane="best" departSpeed="max" from="E31" to="E18.410"/>
    <trip id="res_bike_int070" type="res_bike_int0_bicycle" depart="2016.00" departLane="best" departSpeed="max" from="E22" to="E30.558"/>
    <trip id="res_bike_int071" type="res_bike_int0_bicycle" depart="2044.80" departLane="best" departSpeed="max" from="E18" to="E31.622"/>
    <trip id="res_bike_int072" type="res_bike_int0_bicycle" depart="2073.60" departLane="best" departSpeed="max" from="E22" to="E18.410"/>
    <trip id="res_bike_int073" type="res_bike_int0_bicycle" depart="2102.40" departLane="best" departSpeed="max" from="E22" to="E30.558"/>
    <trip id="res_bike_int074" type="res_bike_int0_bicycle" depart="2131.20" departLane="best" departSpeed="max" from="E18" to="E22.488"/>
    <trip id="res_bike_int075" type="res_bike_int0_bicycle" depart="2160.00" departLane="best" departSpeed="max" from="E31" to="E30.558"/>
    <trip id="res_bike_int076" type="res_bike_int0_bicycle" depart="2188.80" departLane="best" departSpeed="max" from="E22" to="E30.558"/>
    <trip id="res_bike_int077" type="res_bike_int0_bicycle" depart="2217.60" departLane="best" departSpeed="max" from="E18" to="E18.410"/>
    <trip id="res_bike_int078" type="res_bike_int0_bicycle" depart="2246.40" departLane="best" departSpeed="max" from="E22" to="E30.558"/>
    <trip id="res_bike_int079" type="res_bike_int0_bicycle" depart="2275.20" departLane="best" departSpeed="max" from="E18" to="E18.410"/>
    <trip id="res_bike_int081" type="res_bike_int0_bicycle" depart="2332.80" departLane="best" departSpeed="max" from="E18" to="E31.622"/>
    <trip id="res_bike_int082" type="res_bike_int0_bicycle" depart="2361.60" departLane="best" departSpeed="max" from="E31" to="E18.410"/>
    <trip id="res_bike_int084" type="res_bike_int0_bicycle" depart="2419.20" departLane="best" departSpeed="max" from="E18" to="E18.410"/>
    <trip id="res_bike_int085" type="res_bike_int0_bicycle" depart="2448.00" departLane="best" departSpeed="max" from="E31" to="E30.558"/>
    <trip id="res_bike_int087" type="res_bike_int0_bicycle" depart="2505.60" departLane="best" departSpeed="max" from="E31" to="E18.410"/>
    <trip id="res_bike_int088" type="res_bike_int0_bicycle" depart="2534.40" departLane="best" departSpeed="max" from="E18" to="E22.488"/>
    <trip id="res_bike_int089" type="res_bike_int0_bicycle" depart="2563.20" departLane="best" departSpeed="max" from="E22" to="E22.488"/>
    <trip id="res_bike_int090" type="res_bike_int0_bicycle" depart="2592.00" departLane="best" departSpeed="max" from="E31" to="E30.558"/>
    <trip id="res_bike_int091" type="res_bike_int0_bicycle" depart="2620.80" departLane="best" departSpeed="max" from="E31" to="E18.410"/>
    <trip id="res_bike_int092" type="res_bike_int0_bicycle" depart="2649.60" departLane="best" departSpeed="max" from="E22" to="E22.488"/>
    <trip id="res_bike_int093" type="res_bike_int0_bicycle" depart="2678.40" departLane="best" departSpeed="max" from="E31" to="E18.410"/>
    <trip id="res_bike_int094" type="res_bike_int0_bicycle" depart="2707.20" departLane="best" departSpeed="max" from="E18" to="E22.488"/>
    <trip id="res_bike_int095" type="res_bike_int0_bicycle" depart="2736.00" departLane="best" departSpeed="max" from="E22" to="E22.488"/>
    <trip id="res_bike_int096" type="res_bike_int0_bicycle" depart="2764.80" departLane="best" departSpeed="max" from="E18" to="E31.622"/>
    <trip id="res_bike_int098" type="res_bike_int0_bicycle" depart="2822.40" departLane="best" departSpeed="max" from="E22" to="E18.410"/>
    <trip id="res_bike_int099" type="res_bike_int0_bicycle" depart="2851.20" departLane="best" departSpeed="max" from="E31" to="E31.622"/>
    <trip id="res_bike_int0100" type="res_bike_int0_bicycle" depart="2880.00" departLane="best" departSpeed="max" from="E31" to="E31.622"/>
    <trip id="res_bike_int0101" type="res_bike_int0_bicycle" depart="2908.80" departLane="best" departSpeed="max" from="E31" to="E18.410"/>
    <trip id="res_bike_int0102" type="res_bike_int0_bicycle" depart="2937.60" departLane="best" departSpeed="max" from="E22" to="E18.410"/>
    <trip id="res_bike_int0103" type="res_bike_int0_bicycle" depart="2966.40" departLane="best" departSpeed="max" from="E22" to="E18.410"/>
    <trip id="res_bike_int0105" type="res_bike_int0_bicycle" depart="3024.00" departLane="best" departSpeed="max" from="E18" to="E31.622"/>
    <trip id="res_bike_int0106" type="res_bike_int0_bicycle" depart="3052.80" departLane="best" departSpeed="max" from="E22" to="E22.488"/>
    <trip id="res_bike_int0107" type="res_bike_int0_bicycle" depart="3081.60" departLane="best" departSpeed="max" from="E31" to="E31.622"/>
    <trip id="res_bike_int0108" type="res_bike_int0_bicycle" depart="3110.40" departLane="best" departSpeed="max" from="E22" to="E30.558"/>
    <trip id="res_bike_int0109" type="res_bike_int0_bicycle" depart="3139.20" departLane="best" departSpeed="max" from="E18" to="E22.488"/>
    <trip id="res_bike_int0110" type="res_bike_int0_bicycle" depart="3168.00" departLane="best" departSpeed="max" from="E31" to="E30.558"/>
    <trip id="res_bike_int0111" type="res_bike_int0_bicycle" depart="3196.80" departLane="best" departSpeed="max" from="E22" to="E30.558"/>
    <trip id="res_bike_int0114" type="res_bike_int0_bicycle" depart="3283.20" departLane="best" departSpeed="max" from="E18" to="E31.622"/>
    <trip id="res_bike_int0115" type="res_bike_int0_bicycle" depart="3312.00" departLane="best" departSpeed="max" from="E18" to="E18.410"/>
    <trip id="res_bike_int0116" type="res_bike_int0_bicycle" depart="3340.80" departLane="best" departSpeed="max" from="E22" to="E30.558"/>
    <trip id="res_bike_int0117" type="res_bike_int0_bicycle" depart="3369.60" departLane="best" departSpeed="max" from="E18" to="E18.410"/>
    <trip id="res_bike_int0118" type="res_bike_int0_bicycle" depart="3398.40" departLane="best" departSpeed="max" from="E31" to="E18.410"/>
    <trip id="res_bike_int0119" type="res_bike_int0_bicycle" depart="3427.20" departLane="best" departSpeed="max" from="E22" to="E30.558"/>
    <trip id="res_bike_int0120" type="res_bike_int0_bicycle" depart="3456.00" departLane="best" departSpeed="max" from="E22" to="E30.558"/>
    <trip id="res_bike_int0123" type="res_bike_int0_bicycle" depart="3542.40" departLane="best" departSpeed="max" from="E18" to="E22.488"/>
</routes>
