<routes>

<!-- generated on 2025-08-18 21:49:25.934692 by randomTrips.py UNKNOWN
<configuration>
    <net-file value="osm.net.xml.gz"/>
    <weights-prefix value="random_edge_priority_interval_0"/>
    <output-trip-file value="osm.res_veh.interval_0.trips.xml"/>
    <route-file value="osm.res_veh.interval_0.rou.xml"/>
    <prefix value="res_veh_int0"/>
    <trip-attributes value="departLane=&quot;best&quot;"/>
    <fringe-start-attributes value="departSpeed=&quot;max&quot;"/>
    <vehicle-class value="passenger"/>
    <remove-loops value="True"/>
    <validate value="True"/>
    <verbose value="True"/>
    <end value="360.0"/>
    <insertion-rate value="900.0"/>
</configuration>
-->

<!-- generated on 2025-08-18 21:49:25 by Eclipse SUMO duarouter Version 1.22.0
<duarouterConfiguration xmlns:xsi="http://www.w3.org/2001/XMLSchema-instance" xsi:noNamespaceSchemaLocation="http://sumo.dlr.de/xsd/duarouterConfiguration.xsd">

    <input>
        <net-file value="osm.net.xml.gz"/>
        <route-files value="osm.res_veh.interval_0.trips.xml"/>
    </input>

    <output>
        <output-file value="osm.res_veh.interval_0.trips.xml.tmp"/>
        <alternatives-output value="NUL"/>
        <write-trips value="true"/>
    </output>

    <processing>
        <remove-loops value="true"/>
    </processing>

    <time>
        <begin value="0.0"/>
        <end value="360.0"/>
    </time>

    <report>
        <verbose value="true"/>
        <ignore-errors value="true"/>
        <no-step-log value="true"/>
    </report>

</duarouterConfiguration>
-->

    <vType id="res_veh_int0_passenger" vClass="passenger"/>
    <trip id="res_veh_int00" type="res_veh_int0_passenger" depart="0.00" departLane="best" departSpeed="max" from="E22" to="E18.410"/>
    <trip id="res_veh_int01" type="res_veh_int0_passenger" depart="4.00" departLane="best" departSpeed="max" from="E18" to="E18.410"/>
    <trip id="res_veh_int02" type="res_veh_int0_passenger" depart="8.00" departLane="best" departSpeed="max" from="E22" to="E30.558"/>
    <trip id="res_veh_int03" type="res_veh_int0_passenger" depart="12.00" departLane="best" departSpeed="max" from="E31" to="E18.410"/>
    <trip id="res_veh_int04" type="res_veh_int0_passenger" depart="16.00" departLane="best" departSpeed="max" from="E22" to="E18.410"/>
    <trip id="res_veh_int06" type="res_veh_int0_passenger" depart="24.00" departLane="best" departSpeed="max" from="E18" to="E18.410"/>
    <trip id="res_veh_int07" type="res_veh_int0_passenger" depart="28.00" departLane="best" departSpeed="max" from="E22" to="E30.558"/>
    <trip id="res_veh_int010" type="res_veh_int0_passenger" depart="40.00" departLane="best" departSpeed="max" from="E30" to="E30.558"/>
    <trip id="res_veh_int011" type="res_veh_int0_passenger" depart="44.00" departLane="best" departSpeed="max" from="E18" to="E18.410"/>
    <trip id="res_veh_int013" type="res_veh_int0_passenger" depart="52.00" departLane="best" departSpeed="max" from="E18" to="E18.410"/>
    <trip id="res_veh_int014" type="res_veh_int0_passenger" depart="56.00" departLane="best" departSpeed="max" from="E30" to="E30.558"/>
    <trip id="res_veh_int015" type="res_veh_int0_passenger" depart="60.00" departLane="best" departSpeed="max" from="E30" to="E30.558"/>
    <trip id="res_veh_int018" type="res_veh_int0_passenger" depart="72.00" departLane="best" departSpeed="max" from="E30" to="E30.558"/>
    <trip id="res_veh_int019" type="res_veh_int0_passenger" depart="76.00" departLane="best" departSpeed="max" from="E30" to="E30.558"/>
    <trip id="res_veh_int020" type="res_veh_int0_passenger" depart="80.00" departLane="best" departSpeed="max" from="E22" to="E18.410"/>
    <trip id="res_veh_int021" type="res_veh_int0_passenger" depart="84.00" departLane="best" departSpeed="max" from="E18" to="E22.488"/>
    <trip id="res_veh_int022" type="res_veh_int0_passenger" depart="88.00" departLane="best" departSpeed="max" from="E18" to="E18.410"/>
    <trip id="res_veh_int023" type="res_veh_int0_passenger" depart="92.00" departLane="best" departSpeed="max" from="E18" to="E22.488"/>
    <trip id="res_veh_int024" type="res_veh_int0_passenger" depart="96.00" departLane="best" departSpeed="max" from="E22" to="E22.488"/>
    <trip id="res_veh_int025" type="res_veh_int0_passenger" depart="100.00" departLane="best" departSpeed="max" from="E18" to="E18.410"/>
    <trip id="res_veh_int026" type="res_veh_int0_passenger" depart="104.00" departLane="best" departSpeed="max" from="E18" to="E31.622"/>
    <trip id="res_veh_int027" type="res_veh_int0_passenger" depart="108.00" departLane="best" departSpeed="max" from="E22" to="E30.558"/>
    <trip id="res_veh_int029" type="res_veh_int0_passenger" depart="116.00" departLane="best" departSpeed="max" from="E18" to="E22.488"/>
    <trip id="res_veh_int030" type="res_veh_int0_passenger" depart="120.00" departLane="best" departSpeed="max" from="E31" to="E30.558"/>
    <trip id="res_veh_int031" type="res_veh_int0_passenger" depart="124.00" departLane="best" departSpeed="max" from="E22" to="E30.558"/>
    <trip id="res_veh_int032" type="res_veh_int0_passenger" depart="128.00" departLane="best" departSpeed="max" from="E30" to="E31.622"/>
    <trip id="res_veh_int033" type="res_veh_int0_passenger" depart="132.00" departLane="best" departSpeed="max" from="E18" to="E18.410"/>
    <trip id="res_veh_int034" type="res_veh_int0_passenger" depart="136.00" departLane="best" departSpeed="max" from="E18" to="E22.488"/>
    <trip id="res_veh_int035" type="res_veh_int0_passenger" depart="140.00" departLane="best" departSpeed="max" from="E18" to="E31.622"/>
    <trip id="res_veh_int036" type="res_veh_int0_passenger" depart="144.00" departLane="best" departSpeed="max" from="E30" to="E22.488"/>
    <trip id="res_veh_int037" type="res_veh_int0_passenger" depart="148.00" departLane="best" departSpeed="max" from="E22" to="E22.488"/>
    <trip id="res_veh_int039" type="res_veh_int0_passenger" depart="156.00" departLane="best" departSpeed="max" from="E18" to="E18.410"/>
    <trip id="res_veh_int040" type="res_veh_int0_passenger" depart="160.00" departLane="best" departSpeed="max" from="E22" to="E22.488"/>
    <trip id="res_veh_int042" type="res_veh_int0_passenger" depart="168.00" departLane="best" departSpeed="max" from="E18" to="E18.410"/>
    <trip id="res_veh_int043" type="res_veh_int0_passenger" depart="172.00" departLane="best" departSpeed="max" from="E31" to="E30.558"/>
    <trip id="res_veh_int044" type="res_veh_int0_passenger" depart="176.00" departLane="best" departSpeed="max" from="E18" to="E18.410"/>
    <trip id="res_veh_int046" type="res_veh_int0_passenger" depart="184.00" departLane="best" departSpeed="max" from="E30" to="E22.488"/>
    <trip id="res_veh_int047" type="res_veh_int0_passenger" depart="188.00" departLane="best" departSpeed="max" from="E18" to="E22.488"/>
    <trip id="res_veh_int048" type="res_veh_int0_passenger" depart="192.00" departLane="best" departSpeed="max" from="E31" to="E30.558"/>
    <trip id="res_veh_int049" type="res_veh_int0_passenger" depart="196.00" departLane="best" departSpeed="max" from="E31" to="E31.622"/>
    <trip id="res_veh_int051" type="res_veh_int0_passenger" depart="204.00" departLane="best" departSpeed="max" from="E22" to="E30.558"/>
    <trip id="res_veh_int053" type="res_veh_int0_passenger" depart="212.00" departLane="best" departSpeed="max" from="E18" to="E22.488"/>
    <trip id="res_veh_int055" type="res_veh_int0_passenger" depart="220.00" departLane="best" departSpeed="max" from="E30" to="E22.488"/>
    <trip id="res_veh_int056" type="res_veh_int0_passenger" depart="224.00" departLane="best" departSpeed="max" from="E22" to="E18.410"/>
    <trip id="res_veh_int057" type="res_veh_int0_passenger" depart="228.00" departLane="best" departSpeed="max" from="E31" to="E31.622"/>
    <trip id="res_veh_int059" type="res_veh_int0_passenger" depart="236.00" departLane="best" departSpeed="max" from="E22" to="E18.410"/>
    <trip id="res_veh_int060" type="res_veh_int0_passenger" depart="240.00" departLane="best" departSpeed="max" from="E30" to="E30.558"/>
    <trip id="res_veh_int061" type="res_veh_int0_passenger" depart="244.00" departLane="best" departSpeed="max" from="E30" to="E30.558"/>
    <trip id="res_veh_int062" type="res_veh_int0_passenger" depart="248.00" departLane="best" departSpeed="max" from="E18" to="E22.488"/>
    <trip id="res_veh_int063" type="res_veh_int0_passenger" depart="252.00" departLane="best" departSpeed="max" from="E18" to="E31.622"/>
    <trip id="res_veh_int064" type="res_veh_int0_passenger" depart="256.00" departLane="best" departSpeed="max" from="E30" to="E31.622"/>
    <trip id="res_veh_int065" type="res_veh_int0_passenger" depart="260.00" departLane="best" departSpeed="max" from="E18" to="E18.410"/>
    <trip id="res_veh_int066" type="res_veh_int0_passenger" depart="264.00" departLane="best" departSpeed="max" from="E30" to="E31.622"/>
    <trip id="res_veh_int067" type="res_veh_int0_passenger" depart="268.00" departLane="best" departSpeed="max" from="E18" to="E22.488"/>
    <trip id="res_veh_int068" type="res_veh_int0_passenger" depart="272.00" departLane="best" departSpeed="max" from="E18" to="E31.622"/>
    <trip id="res_veh_int070" type="res_veh_int0_passenger" depart="280.00" departLane="best" departSpeed="max" from="E22" to="E30.558"/>
    <trip id="res_veh_int071" type="res_veh_int0_passenger" depart="284.00" departLane="best" departSpeed="max" from="E18" to="E31.622"/>
    <trip id="res_veh_int072" type="res_veh_int0_passenger" depart="288.00" departLane="best" departSpeed="max" from="E22" to="E18.410"/>
    <trip id="res_veh_int073" type="res_veh_int0_passenger" depart="292.00" departLane="best" departSpeed="max" from="E22" to="E30.558"/>
    <trip id="res_veh_int074" type="res_veh_int0_passenger" depart="296.00" departLane="best" departSpeed="max" from="E18" to="E22.488"/>
    <trip id="res_veh_int075" type="res_veh_int0_passenger" depart="300.00" departLane="best" departSpeed="max" from="E31" to="E30.558"/>
    <trip id="res_veh_int076" type="res_veh_int0_passenger" depart="304.00" departLane="best" departSpeed="max" from="E22" to="E30.558"/>
    <trip id="res_veh_int077" type="res_veh_int0_passenger" depart="308.00" departLane="best" departSpeed="max" from="E18" to="E18.410"/>
    <trip id="res_veh_int079" type="res_veh_int0_passenger" depart="316.00" departLane="best" departSpeed="max" from="E18" to="E18.410"/>
    <trip id="res_veh_int081" type="res_veh_int0_passenger" depart="324.00" departLane="best" departSpeed="max" from="E18" to="E31.622"/>
    <trip id="res_veh_int084" type="res_veh_int0_passenger" depart="336.00" departLane="best" departSpeed="max" from="E18" to="E18.410"/>
    <trip id="res_veh_int085" type="res_veh_int0_passenger" depart="340.00" departLane="best" departSpeed="max" from="E31" to="E30.558"/>
    <trip id="res_veh_int088" type="res_veh_int0_passenger" depart="352.00" departLane="best" departSpeed="max" from="E18" to="E22.488"/>
    <trip id="res_veh_int089" type="res_veh_int0_passenger" depart="356.00" departLane="best" departSpeed="max" from="E22" to="E22.488"/>

<!-- generated on 2025-08-18 21:49:26.765561 by randomTrips.py UNKNOWN
<configuration>
    <net-file value="osm.net.xml.gz"/>
    <weights-prefix value="random_edge_priority_interval_1"/>
    <output-trip-file value="osm.res_veh.interval_1.trips.xml"/>
    <route-file value="osm.res_veh.interval_1.rou.xml"/>
    <prefix value="res_veh_int1"/>
    <trip-attributes value="departLane=&quot;best&quot;"/>
    <fringe-start-attributes value="departSpeed=&quot;max&quot;"/>
    <vehicle-class value="passenger"/>
    <remove-loops value="True"/>
    <validate value="True"/>
    <verbose value="True"/>
    <begin value="361.0"/>
    <end value="721.0"/>
    <insertion-rate value="900.0"/>
</configuration>
-->

<!-- generated on 2025-08-18 21:49:26 by Eclipse SUMO duarouter Version 1.22.0
<duarouterConfiguration xmlns:xsi="http://www.w3.org/2001/XMLSchema-instance" xsi:noNamespaceSchemaLocation="http://sumo.dlr.de/xsd/duarouterConfiguration.xsd">

    <input>
        <net-file value="osm.net.xml.gz"/>
        <route-files value="osm.res_veh.interval_1.trips.xml"/>
    </input>

    <output>
        <output-file value="osm.res_veh.interval_1.trips.xml.tmp"/>
        <alternatives-output value="NUL"/>
        <write-trips value="true"/>
    </output>

    <processing>
        <remove-loops value="true"/>
    </processing>

    <time>
        <begin value="361.0"/>
        <end value="721.0"/>
    </time>

    <report>
        <verbose value="true"/>
        <ignore-errors value="true"/>
        <no-step-log value="true"/>
    </report>

</duarouterConfiguration>
-->

    <vType id="res_veh_int1_passenger" vClass="passenger"/>
    <trip id="res_veh_int10" type="res_veh_int1_passenger" depart="361.00" departLane="best" departSpeed="max" from="E31" to="E18.410"/>
    <trip id="res_veh_int11" type="res_veh_int1_passenger" depart="365.00" departLane="best" departSpeed="max" from="E22" to="E18.410"/>
    <trip id="res_veh_int12" type="res_veh_int1_passenger" depart="369.00" departLane="best" departSpeed="max" from="E31" to="E30.558"/>
    <trip id="res_veh_int13" type="res_veh_int1_passenger" depart="373.00" departLane="best" departSpeed="max" from="E31" to="E18.410"/>
    <trip id="res_veh_int14" type="res_veh_int1_passenger" depart="377.00" departLane="best" departSpeed="max" from="E22" to="E18.410"/>
    <trip id="res_veh_int15" type="res_veh_int1_passenger" depart="381.00" departLane="best" departSpeed="max" from="E22" to="E30.558"/>
    <trip id="res_veh_int16" type="res_veh_int1_passenger" depart="385.00" departLane="best" departSpeed="max" from="E18" to="E18.410"/>
    <trip id="res_veh_int17" type="res_veh_int1_passenger" depart="389.00" departLane="best" departSpeed="max" from="E31" to="E30.558"/>
    <trip id="res_veh_int18" type="res_veh_int1_passenger" depart="393.00" departLane="best" departSpeed="max" from="E22" to="E30.558"/>
    <trip id="res_veh_int19" type="res_veh_int1_passenger" depart="397.00" departLane="best" departSpeed="max" from="E31" to="E18.410"/>
    <trip id="res_veh_int110" type="res_veh_int1_passenger" depart="401.00" departLane="best" departSpeed="max" from="E31" to="E30.558"/>
    <trip id="res_veh_int111" type="res_veh_int1_passenger" depart="405.00" departLane="best" departSpeed="max" from="E22" to="E18.410"/>
    <trip id="res_veh_int113" type="res_veh_int1_passenger" depart="413.00" departLane="best" departSpeed="max" from="E18" to="E18.410"/>
    <trip id="res_veh_int114" type="res_veh_int1_passenger" depart="417.00" departLane="best" departSpeed="max" from="E31" to="E30.558"/>
    <trip id="res_veh_int115" type="res_veh_int1_passenger" depart="421.00" departLane="best" departSpeed="max" from="E31" to="E30.558"/>
    <trip id="res_veh_int116" type="res_veh_int1_passenger" depart="425.00" departLane="best" departSpeed="max" from="E30" to="E31.622"/>
    <trip id="res_veh_int117" type="res_veh_int1_passenger" depart="429.00" departLane="best" departSpeed="max" from="E22" to="E30.558"/>
    <trip id="res_veh_int118" type="res_veh_int1_passenger" depart="433.00" departLane="best" departSpeed="max" from="E31" to="E30.558"/>
    <trip id="res_veh_int119" type="res_veh_int1_passenger" depart="437.00" departLane="best" departSpeed="max" from="E31" to="E30.558"/>
    <trip id="res_veh_int120" type="res_veh_int1_passenger" depart="441.00" departLane="best" departSpeed="max" from="E31" to="E18.410"/>
    <trip id="res_veh_int121" type="res_veh_int1_passenger" depart="445.00" departLane="best" departSpeed="max" from="E22" to="E22.488"/>
    <trip id="res_veh_int122" type="res_veh_int1_passenger" depart="449.00" departLane="best" departSpeed="max" from="E18" to="E18.410"/>
    <trip id="res_veh_int123" type="res_veh_int1_passenger" depart="453.00" departLane="best" departSpeed="max" from="E18" to="E22.488"/>
    <trip id="res_veh_int125" type="res_veh_int1_passenger" depart="461.00" departLane="best" departSpeed="max" from="E22" to="E18.410"/>
    <trip id="res_veh_int127" type="res_veh_int1_passenger" depart="469.00" departLane="best" departSpeed="max" from="E31" to="E30.558"/>
    <trip id="res_veh_int128" type="res_veh_int1_passenger" depart="473.00" departLane="best" departSpeed="max" from="E22" to="E30.558"/>
    <trip id="res_veh_int129" type="res_veh_int1_passenger" depart="477.00" departLane="best" departSpeed="max" from="E22" to="E22.488"/>
    <trip id="res_veh_int130" type="res_veh_int1_passenger" depart="481.00" departLane="best" departSpeed="max" from="E31" to="E30.558"/>
    <trip id="res_veh_int131" type="res_veh_int1_passenger" depart="485.00" departLane="best" departSpeed="max" from="E30" to="E30.558"/>
    <trip id="res_veh_int132" type="res_veh_int1_passenger" depart="489.00" departLane="best" departSpeed="max" from="E31" to="E31.622"/>
    <trip id="res_veh_int133" type="res_veh_int1_passenger" depart="493.00" departLane="best" departSpeed="max" from="E22" to="E18.410"/>
    <trip id="res_veh_int134" type="res_veh_int1_passenger" depart="497.00" departLane="best" departSpeed="max" from="E22" to="E22.488"/>
    <trip id="res_veh_int139" type="res_veh_int1_passenger" depart="517.00" departLane="best" departSpeed="max" from="E22" to="E18.410"/>
    <trip id="res_veh_int140" type="res_veh_int1_passenger" depart="521.00" departLane="best" departSpeed="max" from="E30" to="E22.488"/>
    <trip id="res_veh_int141" type="res_veh_int1_passenger" depart="525.00" departLane="best" departSpeed="max" from="E30" to="E31.622"/>
    <trip id="res_veh_int142" type="res_veh_int1_passenger" depart="529.00" departLane="best" departSpeed="max" from="E22" to="E18.410"/>
    <trip id="res_veh_int143" type="res_veh_int1_passenger" depart="533.00" departLane="best" departSpeed="max" from="E31" to="E30.558"/>
    <trip id="res_veh_int144" type="res_veh_int1_passenger" depart="537.00" departLane="best" departSpeed="max" from="E18" to="E18.410"/>
    <trip id="res_veh_int147" type="res_veh_int1_passenger" depart="549.00" departLane="best" departSpeed="max" from="E18" to="E22.488"/>
    <trip id="res_veh_int148" type="res_veh_int1_passenger" depart="553.00" departLane="best" departSpeed="max" from="E31" to="E30.558"/>
    <trip id="res_veh_int149" type="res_veh_int1_passenger" depart="557.00" departLane="best" departSpeed="max" from="E31" to="E31.622"/>
    <trip id="res_veh_int151" type="res_veh_int1_passenger" depart="565.00" departLane="best" departSpeed="max" from="E31" to="E30.558"/>
    <trip id="res_veh_int152" type="res_veh_int1_passenger" depart="569.00" departLane="best" departSpeed="max" from="E22" to="E30.558"/>
    <trip id="res_veh_int153" type="res_veh_int1_passenger" depart="573.00" departLane="best" departSpeed="max" from="E18" to="E22.488"/>
    <trip id="res_veh_int156" type="res_veh_int1_passenger" depart="585.00" departLane="best" departSpeed="max" from="E22" to="E18.410"/>
    <trip id="res_veh_int157" type="res_veh_int1_passenger" depart="589.00" departLane="best" departSpeed="max" from="E31" to="E31.622"/>
    <trip id="res_veh_int158" type="res_veh_int1_passenger" depart="593.00" departLane="best" departSpeed="max" from="E22" to="E30.558"/>
    <trip id="res_veh_int160" type="res_veh_int1_passenger" depart="601.00" departLane="best" departSpeed="max" from="E31" to="E30.558"/>
    <trip id="res_veh_int161" type="res_veh_int1_passenger" depart="605.00" departLane="best" departSpeed="max" from="E31" to="E30.558"/>
    <trip id="res_veh_int162" type="res_veh_int1_passenger" depart="609.00" departLane="best" departSpeed="max" from="E18" to="E22.488"/>
    <trip id="res_veh_int163" type="res_veh_int1_passenger" depart="613.00" departLane="best" departSpeed="max" from="E18" to="E31.622"/>
    <trip id="res_veh_int164" type="res_veh_int1_passenger" depart="617.00" departLane="best" departSpeed="max" from="E31" to="E31.622"/>
    <trip id="res_veh_int165" type="res_veh_int1_passenger" depart="621.00" departLane="best" departSpeed="max" from="E22" to="E18.410"/>
    <trip id="res_veh_int166" type="res_veh_int1_passenger" depart="625.00" departLane="best" departSpeed="max" from="E31" to="E31.622"/>
    <trip id="res_veh_int167" type="res_veh_int1_passenger" depart="629.00" departLane="best" departSpeed="max" from="E18" to="E22.488"/>
    <trip id="res_veh_int168" type="res_veh_int1_passenger" depart="633.00" departLane="best" departSpeed="max" from="E18" to="E31.622"/>
    <trip id="res_veh_int169" type="res_veh_int1_passenger" depart="637.00" departLane="best" departSpeed="max" from="E31" to="E18.410"/>
    <trip id="res_veh_int170" type="res_veh_int1_passenger" depart="641.00" departLane="best" departSpeed="max" from="E22" to="E30.558"/>
    <trip id="res_veh_int172" type="res_veh_int1_passenger" depart="649.00" departLane="best" departSpeed="max" from="E22" to="E18.410"/>
    <trip id="res_veh_int173" type="res_veh_int1_passenger" depart="653.00" departLane="best" departSpeed="max" from="E30" to="E30.558"/>
    <trip id="res_veh_int174" type="res_veh_int1_passenger" depart="657.00" departLane="best" departSpeed="max" from="E22" to="E22.488"/>
    <trip id="res_veh_int175" type="res_veh_int1_passenger" depart="661.00" departLane="best" departSpeed="max" from="E31" to="E30.558"/>
    <trip id="res_veh_int176" type="res_veh_int1_passenger" depart="665.00" departLane="best" departSpeed="max" from="E22" to="E30.558"/>
    <trip id="res_veh_int177" type="res_veh_int1_passenger" depart="669.00" departLane="best" departSpeed="max" from="E18" to="E18.410"/>
    <trip id="res_veh_int178" type="res_veh_int1_passenger" depart="673.00" departLane="best" departSpeed="max" from="E22" to="E30.558"/>
    <trip id="res_veh_int179" type="res_veh_int1_passenger" depart="677.00" departLane="best" departSpeed="max" from="E22" to="E18.410"/>
    <trip id="res_veh_int182" type="res_veh_int1_passenger" depart="689.00" departLane="best" departSpeed="max" from="E31" to="E18.410"/>
    <trip id="res_veh_int183" type="res_veh_int1_passenger" depart="693.00" departLane="best" departSpeed="max" from="E22" to="E30.558"/>
    <trip id="res_veh_int184" type="res_veh_int1_passenger" depart="697.00" departLane="best" departSpeed="max" from="E22" to="E18.410"/>
    <trip id="res_veh_int185" type="res_veh_int1_passenger" depart="701.00" departLane="best" departSpeed="max" from="E31" to="E30.558"/>
    <trip id="res_veh_int187" type="res_veh_int1_passenger" depart="709.00" departLane="best" departSpeed="max" from="E31" to="E18.410"/>
    <trip id="res_veh_int188" type="res_veh_int1_passenger" depart="713.00" departLane="best" departSpeed="max" from="E18" to="E22.488"/>
    <trip id="res_veh_int189" type="res_veh_int1_passenger" depart="717.00" departLane="best" departSpeed="max" from="E22" to="E22.488"/>

<!-- generated on 2025-08-18 21:49:27.491530 by randomTrips.py UNKNOWN
<configuration>
    <net-file value="osm.net.xml.gz"/>
    <weights-prefix value="random_edge_priority_interval_2"/>
    <output-trip-file value="osm.res_veh.interval_2.trips.xml"/>
    <route-file value="osm.res_veh.interval_2.rou.xml"/>
    <prefix value="res_veh_int2"/>
    <trip-attributes value="departLane=&quot;best&quot;"/>
    <fringe-start-attributes value="departSpeed=&quot;max&quot;"/>
    <vehicle-class value="passenger"/>
    <remove-loops value="True"/>
    <validate value="True"/>
    <verbose value="True"/>
    <begin value="722.0"/>
    <end value="1082.0"/>
    <insertion-rate value="900.0"/>
</configuration>
-->

<!-- generated on 2025-08-18 21:49:27 by Eclipse SUMO duarouter Version 1.22.0
<duarouterConfiguration xmlns:xsi="http://www.w3.org/2001/XMLSchema-instance" xsi:noNamespaceSchemaLocation="http://sumo.dlr.de/xsd/duarouterConfiguration.xsd">

    <input>
        <net-file value="osm.net.xml.gz"/>
        <route-files value="osm.res_veh.interval_2.trips.xml"/>
    </input>

    <output>
        <output-file value="osm.res_veh.interval_2.trips.xml.tmp"/>
        <alternatives-output value="NUL"/>
        <write-trips value="true"/>
    </output>

    <processing>
        <remove-loops value="true"/>
    </processing>

    <time>
        <begin value="722.0"/>
        <end value="1082.0"/>
    </time>

    <report>
        <verbose value="true"/>
        <ignore-errors value="true"/>
        <no-step-log value="true"/>
    </report>

</duarouterConfiguration>
-->

    <vType id="res_veh_int2_passenger" vClass="passenger"/>
    <trip id="res_veh_int21" type="res_veh_int2_passenger" depart="726.00" departLane="best" departSpeed="max" from="E22" to="E18.410"/>
    <trip id="res_veh_int22" type="res_veh_int2_passenger" depart="730.00" departLane="best" departSpeed="max" from="E30" to="E30.558"/>
    <trip id="res_veh_int23" type="res_veh_int2_passenger" depart="734.00" departLane="best" departSpeed="max" from="E31" to="E18.410"/>
    <trip id="res_veh_int24" type="res_veh_int2_passenger" depart="738.00" departLane="best" departSpeed="max" from="E22" to="E18.410"/>
    <trip id="res_veh_int25" type="res_veh_int2_passenger" depart="742.00" departLane="best" departSpeed="max" from="E22" to="E30.558"/>
    <trip id="res_veh_int26" type="res_veh_int2_passenger" depart="746.00" departLane="best" departSpeed="max" from="E18" to="E18.410"/>
    <trip id="res_veh_int27" type="res_veh_int2_passenger" depart="750.00" departLane="best" departSpeed="max" from="E30" to="E30.558"/>
    <trip id="res_veh_int28" type="res_veh_int2_passenger" depart="754.00" departLane="best" departSpeed="max" from="E22" to="E30.558"/>
    <trip id="res_veh_int210" type="res_veh_int2_passenger" depart="762.00" departLane="best" departSpeed="max" from="E30" to="E30.558"/>
    <trip id="res_veh_int211" type="res_veh_int2_passenger" depart="766.00" departLane="best" departSpeed="max" from="E22" to="E18.410"/>
    <trip id="res_veh_int213" type="res_veh_int2_passenger" depart="774.00" departLane="best" departSpeed="max" from="E18" to="E18.410"/>
    <trip id="res_veh_int214" type="res_veh_int2_passenger" depart="778.00" departLane="best" departSpeed="max" from="E30" to="E30.558"/>
    <trip id="res_veh_int215" type="res_veh_int2_passenger" depart="782.00" departLane="best" departSpeed="max" from="E30" to="E30.558"/>
    <trip id="res_veh_int217" type="res_veh_int2_passenger" depart="790.00" departLane="best" departSpeed="max" from="E22" to="E30.558"/>
    <trip id="res_veh_int218" type="res_veh_int2_passenger" depart="794.00" departLane="best" departSpeed="max" from="E30" to="E30.558"/>
    <trip id="res_veh_int219" type="res_veh_int2_passenger" depart="798.00" departLane="best" departSpeed="max" from="E31" to="E30.558"/>
    <trip id="res_veh_int221" type="res_veh_int2_passenger" depart="806.00" departLane="best" departSpeed="max" from="E22" to="E22.488"/>
    <trip id="res_veh_int222" type="res_veh_int2_passenger" depart="810.00" departLane="best" departSpeed="max" from="E18" to="E18.410"/>
    <trip id="res_veh_int223" type="res_veh_int2_passenger" depart="814.00" departLane="best" departSpeed="max" from="E18" to="E22.488"/>
    <trip id="res_veh_int224" type="res_veh_int2_passenger" depart="818.00" departLane="best" departSpeed="max" from="E30" to="E22.488"/>
    <trip id="res_veh_int225" type="res_veh_int2_passenger" depart="822.00" departLane="best" departSpeed="max" from="E22" to="E18.410"/>
    <trip id="res_veh_int227" type="res_veh_int2_passenger" depart="830.00" departLane="best" departSpeed="max" from="E30" to="E30.558"/>
    <trip id="res_veh_int228" type="res_veh_int2_passenger" depart="834.00" departLane="best" departSpeed="max" from="E22" to="E30.558"/>
    <trip id="res_veh_int229" type="res_veh_int2_passenger" depart="838.00" departLane="best" departSpeed="max" from="E22" to="E22.488"/>
    <trip id="res_veh_int230" type="res_veh_int2_passenger" depart="842.00" departLane="best" departSpeed="max" from="E31" to="E30.558"/>
    <trip id="res_veh_int231" type="res_veh_int2_passenger" depart="846.00" departLane="best" departSpeed="max" from="E22" to="E30.558"/>
    <trip id="res_veh_int232" type="res_veh_int2_passenger" depart="850.00" departLane="best" departSpeed="max" from="E30" to="E31.622"/>
    <trip id="res_veh_int233" type="res_veh_int2_passenger" depart="854.00" departLane="best" departSpeed="max" from="E22" to="E18.410"/>
    <trip id="res_veh_int234" type="res_veh_int2_passenger" depart="858.00" departLane="best" departSpeed="max" from="E22" to="E22.488"/>
    <trip id="res_veh_int237" type="res_veh_int2_passenger" depart="870.00" departLane="best" departSpeed="max" from="E30" to="E22.488"/>
    <trip id="res_veh_int239" type="res_veh_int2_passenger" depart="878.00" departLane="best" departSpeed="max" from="E22" to="E18.410"/>
    <trip id="res_veh_int240" type="res_veh_int2_passenger" depart="882.00" departLane="best" departSpeed="max" from="E22" to="E22.488"/>
    <trip id="res_veh_int241" type="res_veh_int2_passenger" depart="886.00" departLane="best" departSpeed="max" from="E30" to="E31.622"/>
    <trip id="res_veh_int242" type="res_veh_int2_passenger" depart="890.00" departLane="best" departSpeed="max" from="E22" to="E18.410"/>
    <trip id="res_veh_int243" type="res_veh_int2_passenger" depart="894.00" departLane="best" departSpeed="max" from="E31" to="E30.558"/>
    <trip id="res_veh_int244" type="res_veh_int2_passenger" depart="898.00" departLane="best" departSpeed="max" from="E18" to="E18.410"/>
    <trip id="res_veh_int246" type="res_veh_int2_passenger" depart="906.00" departLane="best" departSpeed="max" from="E30" to="E22.488"/>
    <trip id="res_veh_int247" type="res_veh_int2_passenger" depart="910.00" departLane="best" departSpeed="max" from="E18" to="E22.488"/>
    <trip id="res_veh_int248" type="res_veh_int2_passenger" depart="914.00" departLane="best" departSpeed="max" from="E31" to="E30.558"/>
    <trip id="res_veh_int249" type="res_veh_int2_passenger" depart="918.00" departLane="best" departSpeed="max" from="E31" to="E31.622"/>