<routes>

<!-- generated on 2025-08-18 21:49:33.581431 by randomTrips.py UNKNOWN
<configuration>
    <net-file value="osm.net.xml.gz"/>
    <weights-prefix value="random_edge_priority_interval_0"/>
    <output-trip-file value="osm.res_truck.interval_0.trips.xml"/>
    <route-file value="osm.res_truck.interval_0.rou.xml"/>
    <prefix value="res_truck_int0"/>
    <trip-attributes value="departLane=&quot;best&quot;"/>
    <fringe-start-attributes value="departSpeed=&quot;max&quot;"/>
    <vehicle-class value="truck"/>
    <vclass value="truck"/>
    <remove-loops value="True"/>
    <validate value="True"/>
    <verbose value="True"/>
    <end value="360.0"/>
    <insertion-rate value="150.0"/>
</configuration>
-->

<!-- generated on 2025-08-18 21:49:33 by Eclipse SUMO duarouter Version 1.22.0
<duarouterConfiguration xmlns:xsi="http://www.w3.org/2001/XMLSchema-instance" xsi:noNamespaceSchemaLocation="http://sumo.dlr.de/xsd/duarouterConfiguration.xsd">

    <input>
        <net-file value="osm.net.xml.gz"/>
        <route-files value="osm.res_truck.interval_0.trips.xml"/>
    </input>

    <output>
        <output-file value="osm.res_truck.interval_0.trips.xml.tmp"/>
        <alternatives-output value="NUL"/>
        <write-trips value="true"/>
    </output>

    <processing>
        <remove-loops value="true"/>
    </processing>

    <time>
        <begin value="0.0"/>
        <end value="360.0"/>
    </time>

    <report>
        <verbose value="true"/>
        <ignore-errors value="true"/>
        <no-step-log value="true"/>
    </report>

</duarouterConfiguration>
-->

    <vType id="res_truck_int0_truck" vClass="truck"/>
    <trip id="res_truck_int00" type="res_truck_int0_truck" depart="0.00" departLane="best" departSpeed="max" from="E22" to="E18.410"/>
    <trip id="res_truck_int01" type="res_truck_int0_truck" depart="24.00" departLane="best" departSpeed="max" from="E18" to="E18.410"/>
    <trip id="res_truck_int02" type="res_truck_int0_truck" depart="48.00" departLane="best" departSpeed="max" from="E22" to="E30.558"/>
    <trip id="res_truck_int03" type="res_truck_int0_truck" depart="72.00" departLane="best" departSpeed="max" from="E31" to="E18.410"/>
    <trip id="res_truck_int04" type="res_truck_int0_truck" depart="96.00" departLane="best" departSpeed="max" from="E22" to="E18.410"/>
    <trip id="res_truck_int06" type="res_truck_int0_truck" depart="144.00" departLane="best" departSpeed="max" from="E18" to="E18.410"/>
    <trip id="res_truck_int07" type="res_truck_int0_truck" depart="168.00" departLane="best" departSpeed="max" from="E22" to="E30.558"/>
    <trip id="res_truck_int010" type="res_truck_int0_truck" depart="240.00" departLane="best" departSpeed="max" from="E30" to="E30.558"/>
    <trip id="res_truck_int011" type="res_truck_int0_truck" depart="264.00" departLane="best" departSpeed="max" from="E18" to="E18.410"/>
    <trip id="res_truck_int013" type="res_truck_int0_truck" depart="312.00" departLane="best" departSpeed="max" from="E18" to="E18.410"/>
    <trip id="res_truck_int014" type="res_truck_int0_truck" depart="336.00" departLane="best" departSpeed="max" from="E30" to="E30.558"/>

<!-- generated on 2025-08-18 21:49:34.297512 by randomTrips.py UNKNOWN
<configuration>
    <net-file value="osm.net.xml.gz"/>
    <weights-prefix value="random_edge_priority_interval_1"/>
    <output-trip-file value="osm.res_truck.interval_1.trips.xml"/>
    <route-file value="osm.res_truck.interval_1.rou.xml"/>
    <prefix value="res_truck_int1"/>
    <trip-attributes value="departLane=&quot;best&quot;"/>
    <fringe-start-attributes value="departSpeed=&quot;max&quot;"/>
    <vehicle-class value="truck"/>
    <vclass value="truck"/>
    <remove-loops value="True"/>
    <validate value="True"/>
    <verbose value="True"/>
    <begin value="361.0"/>
    <end value="721.0"/>
    <insertion-rate value="150.0"/>
</configuration>
-->

<!-- generated on 2025-08-18 21:49:34 by Eclipse SUMO duarouter Version 1.22.0
<duarouterConfiguration xmlns:xsi="http://www.w3.org/2001/XMLSchema-instance" xsi:noNamespaceSchemaLocation="http://sumo.dlr.de/xsd/duarouterConfiguration.xsd">

    <input>
        <net-file value="osm.net.xml.gz"/>
        <route-files value="osm.res_truck.interval_1.trips.xml"/>
    </input>

    <output>
        <output-file value="osm.res_truck.interval_1.trips.xml.tmp"/>
        <alternatives-output value="NUL"/>
        <write-trips value="true"/>
    </output>

    <processing>
        <remove-loops value="true"/>
    </processing>

    <time>
        <begin value="361.0"/>
        <end value="721.0"/>
    </time>

    <report>
        <verbose value="true"/>
        <ignore-errors value="true"/>
        <no-step-log value="true"/>
    </report>

</duarouterConfiguration>
-->

    <vType id="res_truck_int1_truck" vClass="truck"/>
    <trip id="res_truck_int10" type="res_truck_int1_truck" depart="361.00" departLane="best" departSpeed="max" from="E31" to="E18.410"/>
    <trip id="res_truck_int11" type="res_truck_int1_truck" depart="385.00" departLane="best" departSpeed="max" from="E22" to="E18.410"/>
    <trip id="res_truck_int12" type="res_truck_int1_truck" depart="409.00" departLane="best" departSpeed="max" from="E31" to="E30.558"/>
    <trip id="res_truck_int13" type="res_truck_int1_truck" depart="433.00" departLane="best" departSpeed="max" from="E31" to="E18.410"/>
    <trip id="res_truck_int14" type="res_truck_int1_truck" depart="457.00" departLane="best" departSpeed="max" from="E22" to="E18.410"/>
    <trip id="res_truck_int15" type="res_truck_int1_truck" depart="481.00" departLane="best" departSpeed="max" from="E22" to="E30.558"/>
    <trip id="res_truck_int16" type="res_truck_int1_truck" depart="505.00" departLane="best" departSpeed="max" from="E18" to="E18.410"/>
    <trip id="res_truck_int17" type="res_truck_int1_truck" depart="529.00" departLane="best" departSpeed="max" from="E31" to="E30.558"/>
    <trip id="res_truck_int18" type="res_truck_int1_truck" depart="553.00" departLane="best" departSpeed="max" from="E22" to="E30.558"/>
    <trip id="res_truck_int19" type="res_truck_int1_truck" depart="577.00" departLane="best" departSpeed="max" from="E31" to="E18.410"/>
    <trip id="res_truck_int110" type="res_truck_int1_truck" depart="601.00" departLane="best" departSpeed="max" from="E31" to="E30.558"/>
    <trip id="res_truck_int111" type="res_truck_int1_truck" depart="625.00" departLane="best" departSpeed="max" from="E22" to="E18.410"/>
    <trip id="res_truck_int113" type="res_truck_int1_truck" depart="673.00" departLane="best" departSpeed="max" from="E18" to="E18.410"/>
    <trip id="res_truck_int114" type="res_truck_int1_truck" depart="697.00" departLane="best" departSpeed="max" from="E31" to="E30.558"/>

<!-- generated on 2025-08-18 21:49:35.011519 by randomTrips.py UNKNOWN
<configuration>
    <net-file value="osm.net.xml.gz"/>
    <weights-prefix value="random_edge_priority_interval_2"/>
    <output-trip-file value="osm.res_truck.interval_2.trips.xml"/>
    <route-file value="osm.res_truck.interval_2.rou.xml"/>
    <prefix value="res_truck_int2"/>
    <trip-attributes value="departLane=&quot;best&quot;"/>
    <fringe-start-attributes value="departSpeed=&quot;max&quot;"/>
    <vehicle-class value="truck"/>
    <vclass value="truck"/>
    <remove-loops value="True"/>
    <validate value="True"/>
    <verbose value="True"/>
    <begin value="722.0"/>
    <end value="1082.0"/>
    <insertion-rate value="150.0"/>
</configuration>
-->

<!-- generated on 2025-08-18 21:49:34 by Eclipse SUMO duarouter Version 1.22.0
<duarouterConfiguration xmlns:xsi="http://www.w3.org/2001/XMLSchema-instance" xsi:noNamespaceSchemaLocation="http://sumo.dlr.de/xsd/duarouterConfiguration.xsd">

    <input>
        <net-file value="osm.net.xml.gz"/>
        <route-files value="osm.res_truck.interval_2.trips.xml"/>
    </input>

    <output>
        <output-file value="osm.res_truck.interval_2.trips.xml.tmp"/>
        <alternatives-output value="NUL"/>
        <write-trips value="true"/>
    </output>

    <processing>
        <remove-loops value="true"/>
    </processing>

    <time>
        <begin value="722.0"/>
        <end value="1082.0"/>
    </time>

    <report>
        <verbose value="true"/>
        <ignore-errors value="true"/>
        <no-step-log value="true"/>
    </report>

</duarouterConfiguration>
-->

    <vType id="res_truck_int2_truck" vClass="truck"/>
    <trip id="res_truck_int21" type="res_truck_int2_truck" depart="746.00" departLane="best" departSpeed="max" from="E22" to="E18.410"/>
    <trip id="res_truck_int22" type="res_truck_int2_truck" depart="770.00" departLane="best" departSpeed="max" from="E30" to="E30.558"/>
    <trip id="res_truck_int23" type="res_truck_int2_truck" depart="794.00" departLane="best" departSpeed="max" from="E31" to="E18.410"/>
    <trip id="res_truck_int24" type="res_truck_int2_truck" depart="818.00" departLane="best" departSpeed="max" from="E22" to="E18.410"/>
    <trip id="res_truck_int25" type="res_truck_int2_truck" depart="842.00" departLane="best" departSpeed="max" from="E22" to="E30.558"/>
    <trip id="res_truck_int26" type="res_truck_int2_truck" depart="866.00" departLane="best" departSpeed="max" from="E18" to="E18.410"/>
    <trip id="res_truck_int27" type="res_truck_int2_truck" depart="890.00" departLane="best" departSpeed="max" from="E30" to="E30.558"/>
    <trip id="res_truck_int28" type="res_truck_int2_truck" depart="914.00" departLane="best" departSpeed="max" from="E22" to="E30.558"/>
    <trip id="res_truck_int210" type="res_truck_int2_truck" depart="962.00" departLane="best" departSpeed="max" from="E30" to="E30.558"/>
    <trip id="res_truck_int211" type="res_truck_int2_truck" depart="986.00" departLane="best" departSpeed="max" from="E22" to="E18.410"/>
    <trip id="res_truck_int213" type="res_truck_int2_truck" depart="1034.00" departLane="best" departSpeed="max" from="E18" to="E18.410"/>
    <trip id="res_truck_int214" type="res_truck_int2_truck" depart="1058.00" departLane="best" departSpeed="max" from="E30" to="E30.558"/>

<!-- generated on 2025-08-18 21:49:35.727532 by randomTrips.py UNKNOWN
<configuration>
    <net-file value="osm.net.xml.gz"/>
    <weights-prefix value="random_edge_priority_interval_3"/>
    <output-trip-file value="osm.res_truck.interval_3.trips.xml"/>
    <route-file value="osm.res_truck.interval_3.rou.xml"/>
    <prefix value="res_truck_int3"/>
    <trip-attributes value="departLane=&quot;best&quot;"/>
    <fringe-start-attributes value="departSpeed=&quot;max&quot;"/>
    <vehicle-class value="truck"/>
    <vclass value="truck"/>
    <remove-loops value="True"/>
    <validate value="True"/>
    <verbose value="True"/>
    <begin value="1083.0"/>
    <end value="1443.0"/>
    <insertion-rate value="150.0"/>
</configuration>
-->

<!-- generated on 2025-08-18 21:49:35 by Eclipse SUMO duarouter Version 1.22.0
<duarouterConfiguration xmlns:xsi="http://www.w3.org/2001/XMLSchema-instance" xsi:noNamespaceSchemaLocation="http://sumo.dlr.de/xsd/duarouterConfiguration.xsd">

    <input>
        <net-file value="osm.net.xml.gz"/>
        <route-files value="osm.res_truck.interval_3.trips.xml"/>
    </input>

    <output>
        <output-file value="osm.res_truck.interval_3.trips.xml.tmp"/>
        <alternatives-output value="NUL"/>
        <write-trips value="true"/>
    </output>

    <processing>
        <remove-loops value="true"/>
    </processing>

    <time>
        <begin value="1083.0"/>
        <end value="1443.0"/>
    </time>

    <report>
        <verbose value="true"/>
        <ignore-errors value="true"/>
        <no-step-log value="true"/>
    </report>

</duarouterConfiguration>
-->

    <vType id="res_truck_int3_truck" vClass="truck"/>
    <trip id="res_truck_int30" type="res_truck_int3_truck" depart="1083.00" departLane="best" departSpeed="max" from="E22" to="E18.410"/>
    <trip id="res_truck_int31" type="res_truck_int3_truck" depart="1107.00" departLane="best" departSpeed="max" from="E18" to="E18.410"/>
    <trip id="res_truck_int32" type="res_truck_int3_truck" depart="1131.00" departLane="best" departSpeed="max" from="E22" to="E30.558"/>
    <trip id="res_truck_int33" type="res_truck_int3_truck" depart="1155.00" departLane="best" departSpeed="max" from="E31" to="E18.410"/>
    <trip id="res_truck_int34" type="res_truck_int3_truck" depart="1179.00" departLane="best" departSpeed="max" from="E18" to="E18.410"/>
    <trip id="res_truck_int36" type="res_truck_int3_truck" depart="1227.00" departLane="best" departSpeed="max" from="E18" to="E18.410"/>
    <trip id="res_truck_int37" type="res_truck_int3_truck" depart="1251.00" departLane="best" departSpeed="max" from="E22" to="E30.558"/>
    <trip id="res_truck_int310" type="res_truck_int3_truck" depart="1323.00" departLane="best" departSpeed="max" from="E30" to="E30.558"/>
    <trip id="res_truck_int311" type="res_truck_int3_truck" depart="1347.00" departLane="best" departSpeed="max" from="E18" to="E18.410"/>
    <trip id="res_truck_int313" type="res_truck_int3_truck" depart="1395.00" departLane="best" departSpeed="max" from="E18" to="E18.410"/>
    <trip id="res_truck_int314" type="res_truck_int3_truck" depart="1419.00" departLane="best" departSpeed="max" from="E30" to="E30.558"/>

<!-- generated on 2025-08-18 21:49:36.457533 by randomTrips.py UNKNOWN
<configuration>
    <net-file value="osm.net.xml.gz"/>
    <weights-prefix value="random_edge_priority_interval_4"/>
    <output-trip-file value="osm.res_truck.interval_4.trips.xml"/>
    <route-file value="osm.res_truck.interval_4.rou.xml"/>
    <prefix value="res_truck_int4"/>
    <trip-attributes value="departLane=&quot;best&quot;"/>
    <fringe-start-attributes value="departSpeed=&quot;max&quot;"/>
    <vehicle-class value="truck"/>
    <vclass value="truck"/>
    <remove-loops value="True"/>
    <validate value="True"/>
    <verbose value="True"/>
    <begin value="1444.0"/>
    <end value="1804.0"/>
    <insertion-rate value="150.0"/>
</configuration>
-->

<!-- generated on 2025-08-18 21:49:36 by Eclipse SUMO duarouter Version 1.22.0
<duarouterConfiguration xmlns:xsi="http://www.w3.org/2001/XMLSchema-instance" xsi:noNamespaceSchemaLocation="http://sumo.dlr.de/xsd/duarouterConfiguration.xsd">

    <input>
        <net-file value="osm.net.xml.gz"/>
        <route-files value="osm.res_truck.interval_4.trips.xml"/>
    </input>

    <output>
        <output-file value="osm.res_truck.interval_4.trips.xml.tmp"/>
        <alternatives-output value="NUL"/>
        <write-trips value="true"/>
    </output>

    <processing>
        <remove-loops value="true"/>
    </processing>

    <time>
        <begin value="1444.0"/>
        <end value="1804.0"/>
    </time>

    <report>
        <verbose value="true"/>
        <ignore-errors value="true"/>
        <no-step-log value="true"/>
    </report>

</duarouterConfiguration>
-->

    <vType id="res_truck_int4_truck" vClass="truck"/>
    <trip id="res_truck_int40" type="res_truck_int4_truck" depart="1444.00" departLane="best" departSpeed="max" from="E22" to="E18.410"/>
    <trip id="res_truck_int41" type="res_truck_int4_truck" depart="1468.00" departLane="best" departSpeed="max" from="E22" to="E18.410"/>
    <trip id="res_truck_int42" type="res_truck_int4_truck" depart="1492.00" departLane="best" departSpeed="max" from="E30" to="E30.558"/>
    <trip id="res_truck_int43" type="res_truck_int4_truck" depart="1516.00" departLane="best" departSpeed="max" from="E31" to="E18.410"/>
    <trip id="res_truck_int44" type="res_truck_int4_truck" depart="1540.00" departLane="best" departSpeed="max" from="E22" to="E18.410"/>
    <trip id="res_truck_int45" type="res_truck_int4_truck" depart="1564.00" departLane="best" departSpeed="max" from="E22" to="E30.558"/>
    <trip id="res_truck_int46" type="res_truck_int4_truck" depart="1588.00" departLane="best" departSpeed="max" from="E18" to="E18.410"/>
    <trip id="res_truck_int47" type="res_truck_int4_truck" depart="1612.00" departLane="best" departSpeed="max" from="E22" to="E30.558"/>
    <trip id="res_truck_int48" type="res_truck_int4_truck" depart="1636.00" departLane="best" departSpeed="max" from="E22" to="E30.558"/>
    <trip id="res_truck_int410" type="res_truck_int4_truck" depart="1684.00" departLane="best" departSpeed="max" from="E30" to="E30.558"/>
    <trip id="res_truck_int411" type="res_truck_int4_truck" depart="1708.00" departLane="best" departSpeed="max" from="E22" to="E18.410"/>
    <trip id="res_truck_int413" type="res_truck_int4_truck" depart="1756.00" departLane="best" departSpeed="max" from="E18" to="E18.410"/>
    <trip id="res_truck_int414" type="res_truck_int4_truck" depart="1780.00" departLane="best" departSpeed="max" from="E30" to="E30.558"/>

<!-- generated on 2025-08-18 21:49:37.175580 by randomTrips.py UNKNOWN
<configuration>
    <net-file value="osm.net.xml.gz"/>
    <weights-prefix value="random_edge_priority_interval_5"/>
    <output-trip-file value="osm.res_truck.interval_5.trips.xml"/>
    <route-file value="osm.res_truck.interval_5.rou.xml"/>
    <prefix value="res_truck_int5"/>
    <trip-attributes value="departLane=&quot;best&quot;"/>
    <fringe-start-attributes value="departSpeed=&quot;max&quot;"/>
    <vehicle-class value="truck"/>
    <vclass value="truck"/>
    <remove-loops value="True"/>
    <validate value="True"/>
    <verbose value="True"/>
    <begin value="1805.0"/>
    <end value="2165.0"/>
    <insertion-rate value="150.0"/>
</configuration>
-->

<!-- generated on 2025-08-18 21:49:37 by Eclipse SUMO duarouter Version 1.22.0
<duarouterConfiguration xmlns:xsi="http://www.w3.org/2001/XMLSchema-instance" xsi:noNamespaceSchemaLocation="http://sumo.dlr.de/xsd/duarouterConfiguration.xsd">

    <input>
        <net-file value="osm.net.xml.gz"/>
        <route-files value="osm.res_truck.interval_5.trips.xml"/>
    </input>

    <output>
        <output-file value="osm.res_truck.interval_5.trips.xml.tmp"/>
        <alternatives-output value="NUL"/>
        <write-trips value="true"/>
    </output>

    <processing>
        <remove-loops value="true"/>
    </processing>

    <time>
        <begin value="1805.0"/>
        <end value="2165.0"/>
    </time>

    <report>
        <verbose value="true"/>
        <ignore-errors value="true"/>
        <no-step-log value="true"/>
    </report>

</duarouterConfiguration>
-->

    <vType id="res_truck_int5_truck" vClass="truck"/>
    <trip id="res_truck_int51" type="res_truck_int5_truck" depart="1829.00" departLane="best" departSpeed="max" from="E22" to="E18.410"/>
    <trip id="res_truck_int52" type="res_truck_int5_truck" depart="1853.00" departLane="best" departSpeed="max" from="E30" to="E30.558"/>
    <trip id="res_truck_int53" type="res_truck_int5_truck" depart="1877.00" departLane="best" departSpeed="max" from="E31" to="E18.410"/>
    <trip id="res_truck_int54" type="res_truck_int5_truck" depart="1901.00" departLane="best" departSpeed="max" from="E22" to="E18.410"/>
    <trip id="res_truck_int55" type="res_truck_int5_truck" depart="1925.00" departLane="best" departSpeed="max" from="E22" to="E30.558"/>
    <trip id="res_truck_int56" type="res_truck_int5_truck" depart="1949.00" departLane="best" departSpeed="max" from="E18" to="E18.410"/>
    <trip id="res_truck_int57" type="res_truck_int5_truck" depart="1973.00" departLane="best" departSpeed="max" from="E30" to="E30.558"/>
    <trip id="res_truck_int58" type="res_truck_int5_truck" depart="1997.00" departLane="best" departSpeed="max" from="E22" to="E30.558"/>
    <trip id="res_truck_int510" type="res_truck_int5_truck" depart="2045.00" departLane="best" departSpeed="max" from="E30" to="E30.558"/>
    <trip id="res_truck_int511" type="res_truck_int5_truck" depart="2069.00" departLane="best" departSpeed="max" from="E22" to="E18.410"/>
    <trip id="res_truck_int513" type="res_truck_int5_truck" depart="2117.00" departLane="best" departSpeed="max" from="E18" to="E18.410"/>
    <trip id="res_truck_int514" type="res_truck_int5_truck" depart="2141.00" departLane="best" departSpeed="max" from="E30" to="E30.558"/>

<!-- generated on 2025-08-18 21:49:37.904638 by randomTrips.py UNKNOWN
<configuration>
    <net-file value="osm.net.xml.gz"/>
    <weights-prefix value="random_edge_priority_interval_6"/>
    <output-trip-file value="osm.res_truck.interval_6.trips.xml"/>
    <route-file value="osm.res_truck.interval_6.rou.xml"/>
    <prefix value="res_truck_int6"/>
    <trip-attributes value="departLane=&quot;best&quot;"/>
    <fringe-start-attributes value="departSpeed=&quot;max&quot;"/>
    <vehicle-class value="truck"/>
    <vclass value="truck"/>
    <remove-loops value="True"/>
    <validate value="True"/>
    <verbose value="True"/>
    <begin value="2166.0"/>
    <end value="2526.0"/>
    <insertion-rate value="150.0"/>
</configuration>
-->

<!-- generated on 2025-08-18 21:49:37 by Eclipse SUMO duarouter Version 1.22.0
<duarouterConfiguration xmlns:xsi="http://www.w3.org/2001/XMLSchema-instance" xsi:noNamespaceSchemaLocation="http://sumo.dlr.de/xsd/duarouterConfiguration.xsd">

    <input>
        <net-file value="osm.net.xml.gz"/>
        <route-files value="osm.res_truck.interval_6.trips.xml"/>
    </input>

    <output>
        <output-file value="osm.res_truck.interval_6.trips.xml.tmp"/>
        <alternatives-output value="NUL"/>
        <write-trips value="true"/>
    </output>

    <processing>
        <remove-loops value="true"/>
    </processing>

    <time>
        <begin value="2166.0"/>
        <end value="2526.0"/>
    </time>

    <report>
        <verbose value="true"/>
        <ignore-errors value="true"/>
        <no-step-log value="true"/>
    </report>

</duarouterConfiguration>
-->

    <vType id="res_truck_int6_truck" vClass="truck"/>
    <trip id="res_truck_int61" type="res_truck_int6_truck" depart="2190.00" departLane="best" departSpeed="max" from="E18" to="E18.410"/>
    <trip id="res_truck_int62" type="res_truck_int6_truck" depart="2214.00" departLane="best" departSpeed="max" from="E30" to="E30.558"/>
    <trip id="res_truck_int63" type="res_truck_int6_truck" depart="2238.00" departLane="best" departSpeed="max" from="E31" to="E18.410"/>
    <trip id="res_truck_int64" type="res_truck_int6_truck" depart="2262.00" departLane="best" departSpeed="max" from="E18" to="E18.410"/>
    <trip id="res_truck_int66" type="res_truck_int6_truck" depart="2310.00" departLane="best" departSpeed="max" from="E18" to="E18.410"/>
    <trip id="res_truck_int67" type="res_truck_int6_truck" depart="2334.00" departLane="best" departSpeed="max" from="E30" to="E30.558"/>
    <trip id="res_truck_int610" type="res_truck_int6_truck" depart="2406.00" departLane="best" departSpeed="max" from="E30" to="E30.558"/>
    <trip id="res_truck_int611" type="res_truck_int6_truck" depart="2430.00" departLane="best" departSpeed="max" from="E18" to="E18.410"/>
    <trip id="res_truck_int613" type="res_truck_int6_truck" depart="2478.00" departLane="best" departSpeed="max" from="E18" to="E18.410"/>
    <trip id="res_truck_int614" type="res_truck_int6_truck" depart="2502.00" departLane="best" departSpeed="max" from="E30" to="E30.558"/>

<!-- generated on 2025-08-18 21:49:38.613431 by randomTrips.py UNKNOWN
<configuration>
    <net-file value="osm.net.xml.gz"/>
    <weights-prefix value="random_edge_priority_interval_7"/>
    <output-trip-file value="osm.res_truck.interval_7.trips.xml"/>
    <route-file value="osm.res_truck.interval_7.rou.xml"/>
    <prefix value="res_truck_int7"/>
    <trip-attributes value="departLane=&quot;best&quot;"/>
    <fringe-start-attributes value="departSpeed=&quot;max&quot;"/>
    <vehicle-class value="truck"/>
    <vclass value="truck"/>
    <remove-loops value="True"/>
    <validate value="True"/>
    <verbose value="True"/>
    <begin value="2527.0"/>
    <end value="2887.0"/>
    <insertion-rate value="150.0"/>
</configuration>
-->

<!-- generated on 2025-08-18 21:49:38 by Eclipse SUMO duarouter Version 1.22.0
<duarouterConfiguration xmlns:xsi="http://www.w3.org/2001/XMLSchema-instance" xsi:noNamespaceSchemaLocation="http://sumo.dlr.de/xsd/duarouterConfiguration.xsd">

    <input>
        <net-file value="osm.net.xml.gz"/>
        <route-files value="osm.res_truck.interval_7.trips.xml"/>
    </input>

    <output>
        <output-file value="osm.res_truck.interval_7.trips.xml.tmp"/>
        <alternatives-output value="NUL"/>
        <write-trips value="true"/>
    </output>

    <processing>
        <remove-loops value="true"/>
    </processing>

    <time>
        <begin value="2527.0"/>
        <end value="2887.0"/>
    </time>

    <report>
        <verbose value="true"/>
        <ignore-errors value="true"/>
        <no-step-log value="true"/>
    </report>

</duarouterConfiguration>
-->

    <vType id="res_truck_int7_truck" vClass="truck"/>
    <trip id="res_truck_int71" type="res_truck_int7_truck" depart="2551.00" departLane="best" departSpeed="max" from="E22" to="E18.410"/>
    <trip id="res_truck_int72" type="res_truck_int7_truck" depart="2575.00" departLane="best" departSpeed="max" from="E31" to="E30.558"/>
    <trip id="res_truck_int73" type="res_truck_int7_truck" depart="2599.00" departLane="best" departSpeed="max" from="E31" to="E18.410"/>
    <trip id="res_truck_int75" type="res_truck_int7_truck" depart="2647.00" departLane="best" departSpeed="max" from="E22" to="E30.558"/>
    <trip id="res_truck_int76" type="res_truck_int7_truck" depart="2671.00" departLane="best" departSpeed="max" from="E18" to="E18.410"/>
    <trip id="res_truck_int77" type="res_truck_int7_truck" depart="2695.00" departLane="best" departSpeed="max" from="E30" to="E30.558"/>
    <trip id="res_truck_int78" type="res_truck_int7_truck" depart="2719.00" departLane="best" departSpeed="max" from="E22" to="E30.558"/>
    <trip id="res_truck_int79" type="res_truck_int7_truck" depart="2743.00" departLane="best" departSpeed="max" from="E31" to="E18.410"/>
    <trip id="res_truck_int710" type="res_truck_int7_truck" depart="2767.00" departLane="best" departSpeed="max" from="E31" to="E30.558"/>
    <trip id="res_truck_int713" type="res_truck_int7_truck" depart="2839.00" departLane="best" departSpeed="max" from="E18" to="E18.410"/>
    <trip id="res_truck_int714" type="res_truck_int7_truck" depart="2863.00" departLane="best" departSpeed="max" from="E31" to="E30.558"/>

<!-- generated on 2025-08-18 21:49:39.331574 by randomTrips.py UNKNOWN
<configuration>
    <net-file value="osm.net.xml.gz"/>
    <weights-prefix value="random_edge_priority_interval_8"/>
    <output-trip-file value="osm.res_truck.interval_8.trips.xml"/>
    <route-file value="osm.res_truck.interval_8.rou.xml"/>
    <prefix value="res_truck_int8"/>
    <trip-attributes value="departLane=&quot;best&quot;"/>
    <fringe-start-attributes value="departSpeed=&quot;max&quot;"/>
    <vehicle-class value="truck"/>
    <vclass value="truck"/>
    <remove-loops value="True"/>
    <validate value="True"/>
    <verbose value="True"/>
    <begin value="2888.0"/>
    <end value="3248.0"/>
    <insertion-rate value="150.0"/>
</configuration>
-->

<!-- generated on 2025-08-18 21:49:39 by Eclipse SUMO duarouter Version 1.22.0
<duarouterConfiguration xmlns:xsi="http://www.w3.org/2001/XMLSchema-instance" xsi:noNamespaceSchemaLocation="http://sumo.dlr.de/xsd/duarouterConfiguration.xsd">

    <input>
        <net-file value="osm.net.xml.gz"/>
        <route-files value="osm.res_truck.interval_8.trips.xml"/>
    </input>

    <output>
        <output-file value="osm.res_truck.interval_8.trips.xml.tmp"/>
        <alternatives-output value="NUL"/>
        <write-trips value="true"/>
    </output>

    <processing>
        <remove-loops value="true"/>
    </processing>

    <time>
        <begin value="2888.0"/>
        <end value="3248.0"/>
    </time>

    <report>
        <verbose value="true"/>
        <ignore-errors value="true"/>
        <no-step-log value="true"/>
    </report>

</duarouterConfiguration>
-->

    <vType id="res_truck_int8_truck" vClass="truck"/>
    <trip id="res_truck_int80" type="res_truck_int8_truck" depart="2888.00" departLane="best" departSpeed="max" from="E22" to="E18.410"/>
    <trip id="res_truck_int81" type="res_truck_int8_truck" depart="2912.00" departLane="best" departSpeed="max" from="E18" to="E18.410"/>
    <trip id="res_truck_int82" type="res_truck_int8_truck" depart="2936.00" departLane="best" departSpeed="max" from="E30" to="E30.558"/>
    <trip id="res_truck_int83" type="res_truck_int8_truck" depart="2960.00" departLane="best" departSpeed="max" from="E31" to="E18.410"/>
    <trip id="res_truck_int84" type="res_truck_int8_truck" depart="2984.00" departLane="best" departSpeed="max" from="E18" to="E18.410"/>
    <trip id="res_truck_int86" type="res_truck_int8_truck" depart="3032.00" departLane="best" departSpeed="max" from="E18" to="E18.410"/>
    <trip id="res_truck_int87" type="res_truck_int8_truck" depart="3056.00" departLane="best" departSpeed="max" from="E22" to="E30.558"/>
    <trip id="res_truck_int810" type="res_truck_int8_truck" depart="3128.00" departLane="best" departSpeed="max" from="E30" to="E30.558"/>
    <trip id="res_truck_int811" type="res_truck_int8_truck" depart="3152.00" departLane="best" departSpeed="max" from="E18" to="E18.410"/>
    <trip id="res_truck_int813" type="res_truck_int8_truck" depart="3200.00" departLane="best" departSpeed="max" from="E18" to="E18.410"/>
    <trip id="res_truck_int814" type="res_truck_int8_truck" depart="3224.00" departLane="best" departSpeed="max" from="E31" to="E30.558"/>

<!-- generated on 2025-08-18 21:49:40.094517 by randomTrips.py UNKNOWN
<configuration>
    <net-file value="osm.net.xml.gz"/>
    <weights-prefix value="random_edge_priority_interval_9"/>
    <output-trip-file value="osm.res_truck.interval_9.trips.xml"/>
    <route-file value="osm.res_truck.interval_9.rou.xml"/>
    <prefix value="res_truck_int9"/>
    <trip-attributes value="departLane=&quot;best&quot;"/>
    <fringe-start-attributes value="departSpeed=&quot;max&quot;"/>