<?xml version="1.0" encoding="UTF-8"?>

<!-- generated on 2025-08-18 21:49:25 by Eclipse SUMO duarouter Version 1.24.0
<duarouterConfiguration xmlns:xsi="http://www.w3.org/2001/XMLSchema-instance" xsi:noNamespaceSchemaLocation="http://sumo.dlr.de/xsd/duarouterConfiguration.xsd">

    <input>
        <net-file value="osm.net.xml.gz"/>
        <route-files value="osm.res_motorcycle.trips.xml"/>
    </input>

    <output>
        <output-file value="osm.res_motorcycle.rou.xml"/>
    </output>

    <report>
        <ignore-errors value="true"/>
    </report>

</duarouterConfiguration>
-->

<routes xmlns:xsi="http://www.w3.org/2001/XMLSchema-instance" xsi:noNamespaceSchemaLocation="http://sumo.dlr.de/xsd/routes_file.xsd">
    <vType id="res_motorcycle_int0_motorcycle" vClass="motorcycle"/>
    <vehicle id="res_motorcycle_int00" type="res_motorcycle_int0_motorcycle" depart="0.00" departLane="best" departSpeed="max">
        <route edges="E22 E18.410"/>
    </vehicle>
    <vehicle id="res_motorcycle_int01" type="res_motorcycle_int0_motorcycle" depart="2.40" departLane="best" departSpeed="max">
        <route edges="E18 E18.410"/>
    </vehicle>
    <vehicle id="res_motorcycle_int02" type="res_motorcycle_int0_motorcycle" depart="4.80" departLane="best" departSpeed="max">
        <route edges="E22 E30.558"/>
    </vehicle>
    <vehicle id="res_motorcycle_int03" type="res_motorcycle_int0_motorcycle" depart="7.20" departLane="best" departSpeed="max">
        <route edges="E31 E18.410"/>
    </vehicle>
    <vehicle id="res_motorcycle_int04" type="res_motorcycle_int0_motorcycle" depart="9.60" departLane="best" departSpeed="max">
        <route edges="E22 E18.410"/>
    </vehicle>
    <vehicle id="res_motorcycle_int06" type="res_motorcycle_int0_motorcycle" depart="14.40" departLane="best" departSpeed="max">
        <route edges="E18 E18.410"/>
    </vehicle>
    <vehicle id="res_motorcycle_int07" type="res_motorcycle_int0_motorcycle" depart="16.80" departLane="best" departSpeed="max">
        <route edges="E22 E30.558"/>
    </vehicle>
    <vehicle id="res_motorcycle_int010" type="res_motorcycle_int0_motorcycle" depart="24.00" departLane="best" departSpeed="max">
        <route edges="E30 E30.558"/>
    </vehicle>
    <vehicle id="res_motorcycle_int011" type="res_motorcycle_int0_motorcycle" depart="26.40" departLane="best" departSpeed="max">
        <route edges="E18 E18.410"/>
    </vehicle>
    <vehicle id="res_motorcycle_int013" type="res_motorcycle_int0_motorcycle" depart="31.20" departLane="best" departSpeed="max">
        <route edges="E18 E18.410"/>
    </vehicle>
    <vehicle id="res_motorcycle_int014" type="res_motorcycle_int0_motorcycle" depart="33.60" departLane="best" departSpeed="max">
        <route edges="E30 E30.558"/>
    </vehicle>
    <vehicle id="res_motorcycle_int015" type="res_motorcycle_int0_motorcycle" depart="36.00" departLane="best" departSpeed="max">
        <route edges="E30 E30.558"/>
    </vehicle>
    <vehicle id="res_motorcycle_int018" type="res_motorcycle_int0_motorcycle" depart="43.20" departLane="best" departSpeed="max">
        <route edges="E30 E30.558"/>
    </vehicle>
    <vehicle id="res_motorcycle_int019" type="res_motorcycle_int0_motorcycle" depart="45.60" departLane="best" departSpeed="max">
        <route edges="E30 E30.558"/>
    </vehicle>
    <vehicle id="res_motorcycle_int020" type="res_motorcycle_int0_motorcycle" depart="48.00" departLane="best" departSpeed="max">
        <route edges="E22 E18.410"/>
    </vehicle>
    <vehicle id="res_motorcycle_int021" type="res_motorcycle_int0_motorcycle" depart="50.40" departLane="best" departSpeed="max">
        <route edges="E18 E22.488"/>
    </vehicle>
    <vehicle id="res_motorcycle_int022" type="res_motorcycle_int0_motorcycle" depart="52.80" departLane="best" departSpeed="max">
        <route edges="E18 E18.410"/>
    </vehicle>
    <vehicle id="res_motorcycle_int023" type="res_motorcycle_int0_motorcycle" depart="55.20" departLane="best" departSpeed="max">
        <route edges="E18 E22.488"/>
    </vehicle>
    <vehicle id="res_motorcycle_int024" type="res_motorcycle_int0_motorcycle" depart="57.60" departLane="best" departSpeed="max">
        <route edges="E22 E22.488"/>
    </vehicle>
    <vehicle id="res_motorcycle_int025" type="res_motorcycle_int0_motorcycle" depart="60.00" departLane="best" departSpeed="max">
        <route edges="E18 E18.410"/>
    </vehicle>
    <vehicle id="res_motorcycle_int026" type="res_motorcycle_int0_motorcycle" depart="62.40" departLane="best" departSpeed="max">
        <route edges="E18 E31.622"/>
    </vehicle>
    <vehicle id="res_motorcycle_int027" type="res_motorcycle_int0_motorcycle" depart="64.80" departLane="best" departSpeed="max">
        <route edges="E22 E30.558"/>
    </vehicle>
    <vehicle id="res_motorcycle_int029" type="res_motorcycle_int0_motorcycle" depart="69.60" departLane="best" departSpeed="max">
        <route edges="E18 E22.488"/>
    </vehicle>
    <vehicle id="res_motorcycle_int030" type="res_motorcycle_int0_motorcycle" depart="72.00" departLane="best" departSpeed="max">
        <route edges="E31 E30.558"/>
    </vehicle>
    <vehicle id="res_motorcycle_int031" type="res_motorcycle_int0_motorcycle" depart="74.40" departLane="best" departSpeed="max">
        <route edges="E22 E30.558"/>
    </vehicle>
    <vehicle id="res_motorcycle_int032" type="res_motorcycle_int0_motorcycle" depart="76.80" departLane="best" departSpeed="max">
        <route edges="E30 E31.622"/>
    </vehicle>
    <vehicle id="res_motorcycle_int033" type="res_motorcycle_int0_motorcycle" depart="79.20" departLane="best" departSpeed="max">
        <route edges="E18 E18.410"/>
    </vehicle>
    <vehicle id="res_motorcycle_int034" type="res_motorcycle_int0_motorcycle" depart="81.60" departLane="best" departSpeed="max">
        <route edges="E18 E22.488"/>
    </vehicle>
    <vehicle id="res_motorcycle_int035" type="res_motorcycle_int0_motorcycle" depart="84.00" departLane="best" departSpeed="max">
        <route edges="E18 E31.622"/>
    </vehicle>
    <vehicle id="res_motorcycle_int036" type="res_motorcycle_int0_motorcycle" depart="86.40" departLane="best" departSpeed="max">
        <route edges="E30 E22.488"/>
    </vehicle>
    <vehicle id="res_motorcycle_int037" type="res_motorcycle_int0_motorcycle" depart="88.80" departLane="best" departSpeed="max">
        <route edges="E22 E22.488"/>
    </vehicle>
    <vehicle id="res_motorcycle_int039" type="res_motorcycle_int0_motorcycle" depart="93.60" departLane="best" departSpeed="max">
        <route edges="E18 E18.410"/>
    </vehicle>
    <vehicle id="res_motorcycle_int040" type="res_motorcycle_int0_motorcycle" depart="96.00" departLane="best" departSpeed="max">
        <route edges="E22 E22.488"/>
    </vehicle>
    <vehicle id="res_motorcycle_int042" type="res_motorcycle_int0_motorcycle" depart="100.80" departLane="best" departSpeed="max">
        <route edges="E18 E18.410"/>
    </vehicle>
    <vehicle id="res_motorcycle_int043" type="res_motorcycle_int0_motorcycle" depart="103.20" departLane="best" departSpeed="max">
        <route edges="E31 E30.558"/>
    </vehicle>
    <vehicle id="res_motorcycle_int044" type="res_motorcycle_int0_motorcycle" depart="105.60" departLane="best" departSpeed="max">
        <route edges="E18 E18.410"/>
    </vehicle>
    <vehicle id="res_motorcycle_int046" type="res_motorcycle_int0_motorcycle" depart="110.40" departLane="best" departSpeed="max">
        <route edges="E30 E22.488"/>
    </vehicle>
    <vehicle id="res_motorcycle_int047" type="res_motorcycle_int0_motorcycle" depart="112.80" departLane="best" departSpeed="max">
        <route edges="E18 E22.488"/>
    </vehicle>
    <vehicle id="res_motorcycle_int048" type="res_motorcycle_int0_motorcycle" depart="115.20" departLane="best" departSpeed="max">
        <route edges="E31 E30.558"/>
    </vehicle>
    <vehicle id="res_motorcycle_int049" type="res_motorcycle_int0_motorcycle" depart="117.60" departLane="best" departSpeed="max">
        <route edges="E31 E31.622"/>
    </vehicle>
    <vehicle id="res_motorcycle_int051" type="res_motorcycle_int0_motorcycle" depart="122.40" departLane="best" departSpeed="max">
        <route edges="E22 E30.558"/>
    </vehicle>
    <vehicle id="res_motorcycle_int053" type="res_motorcycle_int0_motorcycle" depart="127.20" departLane="best" departSpeed="max">
        <route edges="E18 E22.488"/>
    </vehicle>
    <vehicle id="res_motorcycle_int055" type="res_motorcycle_int0_motorcycle" depart="132.00" departLane="best" departSpeed="max">
        <route edges="E30 E22.488"/>
    </vehicle>
    <vehicle id="res_motorcycle_int056" type="res_motorcycle_int0_motorcycle" depart="134.40" departLane="best" departSpeed="max">
        <route edges="E22 E18.410"/>
    </vehicle>
    <vehicle id="res_motorcycle_int057" type="res_motorcycle_int0_motorcycle" depart="136.80" departLane="best" departSpeed="max">
        <route edges="E31 E31.622"/>
    </vehicle>
    <vehicle id="res_motorcycle_int059" type="res_motorcycle_int0_motorcycle" depart="141.60" departLane="best" departSpeed="max">
        <route edges="E22 E18.410"/>
    </vehicle>
    <vehicle id="res_motorcycle_int060" type="res_motorcycle_int0_motorcycle" depart="144.00" departLane="best" departSpeed="max">
        <route edges="E30 E30.558"/>
    </vehicle>
    <vehicle id="res_motorcycle_int061" type="res_motorcycle_int0_motorcycle" depart="146.40" departLane="best" departSpeed="max">
        <route edges="E30 E30.558"/>
    </vehicle>
    <vehicle id="res_motorcycle_int062" type="res_motorcycle_int0_motorcycle" depart="148.80" departLane="best" departSpeed="max">
        <route edges="E18 E22.488"/>
    </vehicle>
    <vehicle id="res_motorcycle_int063" type="res_motorcycle_int0_motorcycle" depart="151.20" departLane="best" departSpeed="max">
        <route edges="E18 E31.622"/>
    </vehicle>
    <vehicle id="res_motorcycle_int064" type="res_motorcycle_int0_motorcycle" depart="153.60" departLane="best" departSpeed="max">
        <route edges="E30 E31.622"/>
    </vehicle>
    <vehicle id="res_motorcycle_int065" type="res_motorcycle_int0_motorcycle" depart="156.00" departLane="best" departSpeed="max">
        <route edges="E18 E18.410"/>
    </vehicle>
    <vehicle id="res_motorcycle_int066" type="res_motorcycle_int0_motorcycle" depart="158.40" departLane="best" departSpeed="max">
        <route edges="E30 E31.622"/>
    </vehicle>
    <vehicle id="res_motorcycle_int067" type="res_motorcycle_int0_motorcycle" depart="160.80" departLane="best" departSpeed="max">
        <route edges="E18 E22.488"/>
    </vehicle>
    <vehicle id="res_motorcycle_int068" type="res_motorcycle_int0_motorcycle" depart="163.20" departLane="best" departSpeed="max">
        <route edges="E18 E31.622"/>
    </vehicle>
    <vehicle id="res_motorcycle_int070" type="res_motorcycle_int0_motorcycle" depart="168.00" departLane="best" departSpeed="max">
        <route edges="E22 E30.558"/>
    </vehicle>
    <vehicle id="res_motorcycle_int071" type="res_motorcycle_int0_motorcycle" depart="170.40" departLane="best" departSpeed="max">
        <route edges="E18 E31.622"/>
    </vehicle>
    <vehicle id="res_motorcycle_int072" type="res_motorcycle_int0_motorcycle" depart="172.80" departLane="best" departSpeed="max">
        <route edges="E22 E18.410"/>
    </vehicle>
    <vehicle id="res_motorcycle_int073" type="res_motorcycle_int0_motorcycle" depart="175.20" departLane="best" departSpeed="max">
        <route edges="E22 E30.558"/>
    </vehicle>
    <vehicle id="res_motorcycle_int074" type="res_motorcycle_int0_motorcycle" depart="177.60" departLane="best" departSpeed="max">
        <route edges="E18 E22.488"/>
    </vehicle>
    <vehicle id="res_motorcycle_int075" type="res_motorcycle_int0_motorcycle" depart="180.00" departLane="best" departSpeed="max">
        <route edges="E31 E30.558"/>
    </vehicle>
    <vehicle id="res_motorcycle_int076" type="res_motorcycle_int0_motorcycle" depart="182.40" departLane="best" departSpeed="max">
        <route edges="E22 E30.558"/>
    </vehicle>
    <vehicle id="res_motorcycle_int077" type="res_motorcycle_int0_motorcycle" depart="184.80" departLane="best" departSpeed="max">
        <route edges="E18 E18.410"/>
    </vehicle>
    <vehicle id="res_motorcycle_int079" type="res_motorcycle_int0_motorcycle" depart="189.60" departLane="best" departSpeed="max">
        <route edges="E18 E18.410"/>
    </vehicle>
    <vehicle id="res_motorcycle_int081" type="res_motorcycle_int0_motorcycle" depart="194.40" departLane="best" departSpeed="max">
        <route edges="E18 E31.622"/>
    </vehicle>
    <vehicle id="res_motorcycle_int084" type="res_motorcycle_int0_motorcycle" depart="201.60" departLane="best" departSpeed="max">
        <route edges="E18 E18.410"/>
    </vehicle>
    <vehicle id="res_motorcycle_int085" type="res_motorcycle_int0_motorcycle" depart="204.00" departLane="best" departSpeed="max">
        <route edges="E31 E30.558"/>
    </vehicle>
    <vehicle id="res_motorcycle_int088" type="res_motorcycle_int0_motorcycle" depart="211.20" departLane="best" departSpeed="max">
        <route edges="E18 E22.488"/>
    </vehicle>
    <vehicle id="res_motorcycle_int089" type="res_motorcycle_int0_motorcycle" depart="213.60" departLane="best" departSpeed="max">
        <route edges="E22 E22.488"/>
    </vehicle>
    <vehicle id="res_motorcycle_int090" type="res_motorcycle_int0_motorcycle" depart="216.00" departLane="best" departSpeed="max">
        <route edges="E22 E30.558"/>
    </vehicle>
    <vehicle id="res_motorcycle_int091" type="res_motorcycle_int0_motorcycle" depart="218.40" departLane="best" departSpeed="max">
        <route edges="E31 E18.410"/>
    </vehicle>
    <vehicle id="res_motorcycle_int092" type="res_motorcycle_int0_motorcycle" depart="220.80" departLane="best" departSpeed="max">
        <route edges="E22 E22.488"/>
    </vehicle>
    <vehicle id="res_motorcycle_int094" type="res_motorcycle_int0_motorcycle" depart="225.60" departLane="best" departSpeed="max">
        <route edges="E18 E22.488"/>
    </vehicle>
    <vehicle id="res_motorcycle_int095" type="res_motorcycle_int0_motorcycle" depart="228.00" departLane="best" departSpeed="max">
        <route edges="E22 E22.488"/>
    </vehicle>
    <vehicle id="res_motorcycle_int096" type="res_motorcycle_int0_motorcycle" depart="230.40" departLane="best" departSpeed="max">
        <route edges="E18 E31.622"/>
    </vehicle>
    <vehicle id="res_motorcycle_int098" type="res_motorcycle_int0_motorcycle" depart="235.20" departLane="best" departSpeed="max">
        <route edges="E22 E18.410"/>
    </vehicle>
    <vehicle id="res_motorcycle_int099" type="res_motorcycle_int0_motorcycle" depart="237.60" departLane="best" departSpeed="max">
        <route edges="E31 E31.622"/>
    </vehicle>
    <vehicle id="res_motorcycle_int0100" type="res_motorcycle_int0_motorcycle" depart="240.00" departLane="best" departSpeed="max">
        <route edges="E31 E31.622"/>
    </vehicle>
    <vehicle id="res_motorcycle_int0102" type="res_motorcycle_int0_motorcycle" depart="244.80" departLane="best" departSpeed="max">
        <route edges="E22 E18.410"/>
    </vehicle>
    <vehicle id="res_motorcycle_int0103" type="res_motorcycle_int0_motorcycle" depart="247.20" departLane="best" departSpeed="max">
        <route edges="E22 E18.410"/>
    </vehicle>
    <vehicle id="res_motorcycle_int0104" type="res_motorcycle_int0_motorcycle" depart="249.60" departLane="best" departSpeed="max">
        <route edges="E18 E31.622"/>
    </vehicle>
    <vehicle id="res_motorcycle_int0105" type="res_motorcycle_int0_motorcycle" depart="252.00" departLane="best" departSpeed="max">
        <route edges="E18 E31.622"/>
    </vehicle>
    <vehicle id="res_motorcycle_int0106" type="res_motorcycle_int0_motorcycle" depart="254.40" departLane="best" departSpeed="max">
        <route edges="E22 E22.488"/>
    </vehicle>
    <vehicle id="res_motorcycle_int0107" type="res_motorcycle_int0_motorcycle" depart="256.80" departLane="best" departSpeed="max">
        <route edges="E31 E31.622"/>
    </vehicle>
    <vehicle id="res_motorcycle_int0108" type="res_motorcycle_int0_motorcycle" depart="259.20" departLane="best" departSpeed="max">
        <route edges="E22 E30.558"/>
    </vehicle>
    <vehicle id="res_motorcycle_int0109" type="res_motorcycle_int0_motorcycle" depart="261.60" departLane="best" departSpeed="max">
        <route edges="E18 E22.488"/>
    </vehicle>
    <vehicle id="res_motorcycle_int0110" type="res_motorcycle_int0_motorcycle" depart="264.00" departLane="best" departSpeed="max">
        <route edges="E31 E30.558"/>
    </vehicle>
    <vehicle id="res_motorcycle_int0111" type="res_motorcycle_int0_motorcycle" depart="266.40" departLane="best" departSpeed="max">
        <route edges="E22 E30.558"/>
    </vehicle>
    <vehicle id="res_motorcycle_int0114" type="res_motorcycle_int0_motorcycle" depart="273.60" departLane="best" departSpeed="max">
        <route edges="E18 E31.622"/>
    </vehicle>
    <vehicle id="res_motorcycle_int0115" type="res_motorcycle_int0_motorcycle" depart="276.00" departLane="best" departSpeed="max">
        <route edges="E18 E18.410"/>
    </vehicle>
    <vehicle id="res_motorcycle_int0116" type="res_motorcycle_int0_motorcycle" depart="278.40" departLane="best" departSpeed="max">
        <route edges="E22 E30.558"/>
    </vehicle>
    <vehicle id="res_motorcycle_int0117" type="res_motorcycle_int0_motorcycle" depart="280.80" departLane="best" departSpeed="max">
        <route edges="E18 E18.410"/>
    </vehicle>
    <vehicle id="res_motorcycle_int0118" type="res_motorcycle_int0_motorcycle" depart="283.20" departLane="best" departSpeed="max">
        <route edges="E31 E18.410"/>
    </vehicle>
    <vehicle id="res_motorcycle_int0119" type="res_motorcycle_int0_motorcycle" depart="285.60" departLane="best" departSpeed="max">
        <route edges="E22 E30.558"/>
    </vehicle>
    <vehicle id="res_motorcycle_int0120" type="res_motorcycle_int0_motorcycle" depart="288.00" departLane="best" departSpeed="max">
        <route edges="E22 E30.558"/>
    </vehicle>
    <vehicle id="res_motorcycle_int0123" type="res_motorcycle_int0_motorcycle" depart="295.20" departLane="best" departSpeed="max">
        <route edges="E18 E22.488"/>
    </vehicle>
    <vehicle id="res_motorcycle_int0124" type="res_motorcycle_int0_motorcycle" depart="297.60" departLane="best" departSpeed="max">
        <route edges="E22 E22.488"/>
    </vehicle>
    <vehicle id="res_motorcycle_int0125" type="res_motorcycle_int0_motorcycle" depart="300.00" departLane="best" departSpeed="max">
        <route edges="E18 E31.622"/>
    </vehicle>
    <vehicle id="res_motorcycle_int0126" type="res_motorcycle_int0_motorcycle" depart="302.40" departLane="best" departSpeed="max">
        <route edges="E18 E22.488"/>
    </vehicle>
    <vehicle id="res_motorcycle_int0127" type="res_motorcycle_int0_motorcycle" depart="304.80" departLane="best" departSpeed="max">
        <route edges="E31 E31.622"/>
    </vehicle>
    <vehicle id="res_motorcycle_int0128" type="res_motorcycle_int0_motorcycle" depart="307.20" departLane="best" departSpeed="max">
        <route edges="E18 E18.410"/>
    </vehicle>
    <vehicle id="res_motorcycle_int0129" type="res_motorcycle_int0_motorcycle" depart="309.60" departLane="best" departSpeed="max">
        <route edges="E18 E31.622"/>
    </vehicle>
    <vehicle id="res_motorcycle_int0130" type="res_motorcycle_int0_motorcycle" depart="312.00" departLane="best" departSpeed="max">
        <route edges="E31 E31.622"/>
    </vehicle>
    <vehicle id="res_motorcycle_int0131" type="res_motorcycle_int0_motorcycle" depart="314.40" departLane="best" departSpeed="max">
        <route edges="E18 E18.410"/>
    </vehicle>
    <vehicle id="res_motorcycle_int0132" type="res_motorcycle_int0_motorcycle" depart="316.80" departLane="best" departSpeed="max">
        <route edges="E30 E30.558"/>
    </vehicle>
    <vehicle id="res_motorcycle_int0134" type="res_motorcycle_int0_motorcycle" depart="321.60" departLane="best" departSpeed="max">
        <route edges="E22 E18.410"/>
    </vehicle>
    <vehicle id="res_motorcycle_int0135" type="res_motorcycle_int0_motorcycle" depart="324.00" departLane="best" departSpeed="max">
        <route edges="E30 E22.488"/>
    </vehicle>
    <vehicle id="res_motorcycle_int0137" type="res_motorcycle_int0_motorcycle" depart="328.80" departLane="best" departSpeed="max">
        <route edges="E18 E18.410"/>
    </vehicle>
    <vehicle id="res_motorcycle_int0140" type="res_motorcycle_int0_motorcycle" depart="336.00" departLane="best" departSpeed="max">
        <route edges="E22 E18.410"/>
    </vehicle>
    <vehicle id="res_motorcycle_int0141" type="res_motorcycle_int0_motorcycle" depart="338.40" departLane="best" departSpeed="max">
        <route edges="E22 E22.488"/>
    </vehicle>
    <vehicle id="res_motorcycle_int0144" type="res_motorcycle_int0_motorcycle" depart="345.60" departLane="best" departSpeed="max">
        <route edges="E22 E22.488"/>
    </vehicle>
    <vehicle id="res_motorcycle_int0145" type="res_motorcycle_int0_motorcycle" depart="348.00" departLane="best" departSpeed="max">
        <route edges="E18 E31.622"/>
    </vehicle>
    <vehicle id="res_motorcycle_int0146" type="res_motorcycle_int0_motorcycle" depart="350.40" departLane="best" departSpeed="max">
        <route edges="E22 E22.488"/>
    </vehicle>
    <vehicle id="res_motorcycle_int0147" type="res_motorcycle_int0_motorcycle" depart="352.80" departLane="best" departSpeed="max">
        <route edges="E22 E30.558"/>
    </vehicle>
    <vehicle id="res_motorcycle_int0148" type="res_motorcycle_int0_motorcycle" depart="355.20" departLane="best" departSpeed="max">
        <route edges="E22 E18.410"/>
    </vehicle>
    <vehicle id="res_motorcycle_int0149" type="res_motorcycle_int0_motorcycle" depart="357.60" departLane="best" departSpeed="max">
        <route edges="E18 E31.622"/>
    </vehicle>
    <vType id="res_motorcycle_int1_motorcycle" vClass="motorcycle"/>
    <vehicle id="res_motorcycle_int10" type="res_motorcycle_int1_motorcycle" depart="361.00" departLane="best" departSpeed="max">
        <route edges="E31 E18.410"/>
    </vehicle>
    <vehicle id="res_motorcycle_int11" type="res_motorcycle_int1_motorcycle" depart="363.40" departLane="best" departSpeed="max">
        <route edges="E22 E18.410"/>
    </vehicle>
    <vehicle id="res_motorcycle_int12" type="res_motorcycle_int1_motorcycle" depart="365.80" departLane="best" departSpeed="max">
        <route edges="E31 E30.558"/>
    </vehicle>
    <vehicle id="res_motorcycle_int13" type="res_motorcycle_int1_motorcycle" depart="368.20" departLane="best" departSpeed="max">
        <route edges="E31 E18.410"/>
    </vehicle>
    <vehicle id="res_motorcycle_int14" type="res_motorcycle_int1_motorcycle" depart="370.60" departLane="best" departSpeed="max">
        <route edges="E22 E18.410"/>
    </vehicle>
    <vehicle id="res_motorcycle_int15" type="res_motorcycle_int1_motorcycle" depart="373.00" departLane="best" departSpeed="max">
        <route edges="E22 E30.558"/>
    </vehicle>
    <vehicle id="res_motorcycle_int16" type="res_motorcycle_int1_motorcycle" depart="375.40" departLane="best" departSpeed="max">
        <route edges="E18 E18.410"/>
    </vehicle>
    <vehicle id="res_motorcycle_int17" type="res_motorcycle_int1_motorcycle" depart="377.80" departLane="best" departSpeed="max">
        <route edges="E31 E30.558"/>
    </vehicle>
    <vehicle id="res_motorcycle_int18" type="res_motorcycle_int1_motorcycle" depart="380.20" departLane="best" departSpeed="max">
        <route edges="E22 E30.558"/>
    </vehicle>
    <vehicle id="res_motorcycle_int19" type="res_motorcycle_int1_motorcycle" depart="382.60" departLane="best" departSpeed="max">
        <route edges="E31 E18.410"/>
    </vehicle>
    <vehicle id="res_motorcycle_int110" type="res_motorcycle_int1_motorcycle" depart="385.00" departLane="best" departSpeed="max">
        <route edges="E31 E30.558"/>
    </vehicle>
    <vehicle id="res_motorcycle_int111" type="res_motorcycle_int1_motorcycle" depart="387.40" departLane="best" departSpeed="max">
        <route edges="E22 E18.410"/>
    </vehicle>
    <vehicle id="res_motorcycle_int113" type="res_motorcycle_int1_motorcycle" depart="392.20" departLane="best" departSpeed="max">
        <route edges="E18 E18.410"/>
    </vehicle>
    <vehicle id="res_motorcycle_int114" type="res_motorcycle_int1_motorcycle" depart="394.60" departLane="best" departSpeed="max">
        <route edges="E31 E30.558"/>
    </vehicle>
    <vehicle id="res_motorcycle_int115" type="res_motorcycle_int1_motorcycle" depart="397.00" departLane="best" departSpeed="max">
        <route edges="E31 E30.558"/>
    </vehicle>
    <vehicle id="res_motorcycle_int116" type="res_motorcycle_int1_motorcycle" depart="399.40" departLane="best" departSpeed="max">
        <route edges="E30 E31.622"/>
    </vehicle>
    <vehicle id="res_motorcycle_int117" type="res_motorcycle_int1_motorcycle" depart="401.80" departLane="best" departSpeed="max">
        <route edges="E22 E30.558"/>
    </vehicle>
    <vehicle id="res_motorcycle_int118" type="res_motorcycle_int1_motorcycle" depart="404.20" departLane="best" departSpeed="max">
        <route edges="E31 E30.558"/>
    </vehicle>
    <vehicle id="res_motorcycle_int119" type="res_motorcycle_int1_motorcycle" depart="406.60" departLane="best" departSpeed="max">
        <route edges="E31 E30.558"/>
    </vehicle>
    <vehicle id="res_motorcycle_int120" type="res_motorcycle_int1_motorcycle" depart="409.00" departLane="best" departSpeed="max">
        <route edges="E31 E18.410"/>
    </vehicle>
    <vehicle id="res_motorcycle_int121" type="res_motorcycle_int1_motorcycle" depart="411.40" departLane="best" departSpeed="max">
        <route edges="E22 E22.488"/>
    </vehicle>
    <vehicle id="res_motorcycle_int122" type="res_motorcycle_int1_motorcycle" depart="413.80" departLane="best" departSpeed="max">
        <route edges="E18 E18.410"/>
    </vehicle>
    <vehicle id="res_motorcycle_int123" type="res_motorcycle_int1_motorcycle" depart="416.20" departLane="best" departSpeed="max">
        <route edges="E18 E22.488"/>
    </vehicle>
    <vehicle id="res_motorcycle_int125" type="res_motorcycle_int1_motorcycle" depart="421.00" departLane="best" departSpeed="max">
        <route edges="E22 E18.410"/>
    </vehicle>
    <vehicle id="res_motorcycle_int127" type="res_motorcycle_int1_motorcycle" depart="425.80" departLane="best" departSpeed="max">
        <route edges="E31 E30.558"/>
    </vehicle>
    <vehicle id="res_motorcycle_int128" type="res_motorcycle_int1_motorcycle" depart="428.20" departLane="best" departSpeed="max">
        <route edges="E22 E30.558"/>
    </vehicle>
    <vehicle id="res_motorcycle_int129" type="res_motorcycle_int1_motorcycle" depart="430.60" departLane="best" departSpeed="max">
        <route edges="E22 E22.488"/>
    </vehicle>
    <vehicle id="res_motorcycle_int130" type="res_motorcycle_int1_motorcycle" depart="433.00" departLane="best" departSpeed="max">
        <route edges="E31 E30.558"/>
    </vehicle>
    <vehicle id="res_motorcycle_int131" type="res_motorcycle_int1_motorcycle" depart="435.40" departLane="best" departSpeed="max">
        <route edges="E30 E30.558"/>
    </vehicle>
    <vehicle id="res_motorcycle_int132" type="res_motorcycle_int1_motorcycle" depart="437.80" departLane="best" departSpeed="max">
        <route edges="E31 E31.622"/>
    </vehicle>
    <vehicle id="res_motorcycle_int133" type="res_motorcycle_int1_motorcycle" depart="440.20" departLane="best" departSpeed="max">
        <route edges="E22 E18.410"/>
    </vehicle>
    <vehicle id="res_motorcycle_int134" type="res_motorcycle_int1_motorcycle" depart="442.60" departLane="best" departSpeed="max">
        <route edges="E22 E22.488"/>
    </vehicle>
    <vehicle id="res_motorcycle_int139" type="res_motorcycle_int1_motorcycle" depart="454.60" departLane="best" departSpeed="max">
        <route edges="E22 E18.410"/>
    </vehicle>
    <vehicle id="res_motorcycle_int140" type="res_motorcycle_int1_motorcycle" depart="457.00" departLane="best" departSpeed="max">
        <route edges="E30 E22.488"/>
    </vehicle>
    <vehicle id="res_motorcycle_int141" type="res_motorcycle_int1_motorcycle" depart="459.40" departLane="best" departSpeed="max">
        <route edges="E30 E31.622"/>
    </vehicle>
    <vehicle id="res_motorcycle_int142" type="res_motorcycle_int1_motorcycle" depart="461.80" departLane="best" departSpeed="max">
        <route edges="E22 E18.410"/>
    </vehicle>
    <vehicle id="res_motorcycle_int143" type="res_motorcycle_int1_motorcycle" depart="464.20" departLane="best" departSpeed="max">
        <route edges="E31 E30.558"/>
    </vehicle>
    <vehicle id="res_motorcycle_int144" type="res_motorcycle_int1_motorcycle" depart="466.60" departLane="best" departSpeed="max">
        <route edges="E18 E18.410"/>
    </vehicle>
    <vehicle id="res_motorcycle_int147" type="res_motorcycle_int1_motorcycle" depart="473.80" departLane="best" departSpeed="max">
        <route edges="E18 E22.488"/>
    </vehicle>
    <vehicle id="res_motorcycle_int148" type="res_motorcycle_int1_motorcycle" depart="476.20" departLane="best" departSpeed="max">
        <route edges="E31 E30.558"/>
    </vehicle>
    <vehicle id="res_motorcycle_int149" type="res_motorcycle_int1_motorcycle" depart="478.60" departLane="best" departSpeed="max">
        <route edges="E31 E31.622"/>
    </vehicle>
    <vehicle id="res_motorcycle_int151" type="res_motorcycle_int1_motorcycle" depart="483.40" departLane="best" departSpeed="max">
        <route edges="E31 E30.558"/>
    </vehicle>
    <vehicle id="res_motorcycle_int152" type="res_motorcycle_int1_motorcycle" depart="485.80" departLane="best" departSpeed="max">
        <route edges="E22 E30.558"/>
    </vehicle>