<?xml version="1.0" encoding="UTF-8"?>

<!-- generated on 2025-08-16 00:37:57 by Eclipse SUMO duarouter Version 1.22.0
<duarouterConfiguration xmlns:xsi="http://www.w3.org/2001/XMLSchema-instance" xsi:noNamespaceSchemaLocation="http://sumo.dlr.de/xsd/duarouterConfiguration.xsd">

    <input>
        <net-file value="osm.net.xml.gz"/>
        <route-files value="osm.res_motorcycle.interval_0.trips.xml"/>
    </input>

    <output>
        <output-file value="osm.res_motorcycle.interval_0.rou.xml"/>
        <alternatives-output value="NUL"/>
    </output>

    <processing>
        <remove-loops value="true"/>
    </processing>

    <time>
        <begin value="0.0"/>
        <end value="3600.0"/>
    </time>

    <report>
        <verbose value="true"/>
        <ignore-errors value="true"/>
        <no-step-log value="true"/>
    </report>

</duarouterConfiguration>
-->

<routes xmlns:xsi="http://www.w3.org/2001/XMLSchema-instance" xsi:noNamespaceSchemaLocation="http://sumo.dlr.de/xsd/routes_file.xsd">
    <vType id="res_motorcycle_int0_motorcycle" vClass="motorcycle"/>
    <vehicle id="res_motorcycle_int00" type="res_motorcycle_int0_motorcycle" depart="0.00" departLane="best" departSpeed="max">
        <route edges="E22 E18.410"/>
    </vehicle>
    <vehicle id="res_motorcycle_int01" type="res_motorcycle_int0_motorcycle" depart="12.00" departLane="best" departSpeed="max">
        <route edges="E18 E18.410"/>
    </vehicle>
    <vehicle id="res_motorcycle_int02" type="res_motorcycle_int0_motorcycle" depart="24.00" departLane="best" departSpeed="max">
        <route edges="E22 E30.558"/>
    </vehicle>
    <vehicle id="res_motorcycle_int03" type="res_motorcycle_int0_motorcycle" depart="36.00" departLane="best" departSpeed="max">
        <route edges="E22 E18.410"/>
    </vehicle>
    <vehicle id="res_motorcycle_int04" type="res_motorcycle_int0_motorcycle" depart="48.00" departLane="best" departSpeed="max">
        <route edges="E22 E18.410"/>
    </vehicle>
    <vehicle id="res_motorcycle_int06" type="res_motorcycle_int0_motorcycle" depart="72.00" departLane="best" departSpeed="max">
        <route edges="E18 E18.410"/>
    </vehicle>
    <vehicle id="res_motorcycle_int07" type="res_motorcycle_int0_motorcycle" depart="84.00" departLane="best" departSpeed="max">
        <route edges="E22 E30.558"/>
    </vehicle>
    <vehicle id="res_motorcycle_int09" type="res_motorcycle_int0_motorcycle" depart="108.00" departLane="best" departSpeed="max">
        <route edges="E22 E18.410"/>
    </vehicle>
    <vehicle id="res_motorcycle_int010" type="res_motorcycle_int0_motorcycle" depart="120.00" departLane="best" departSpeed="max">
        <route edges="E22 E30.558"/>
    </vehicle>
    <vehicle id="res_motorcycle_int011" type="res_motorcycle_int0_motorcycle" depart="132.00" departLane="best" departSpeed="max">
        <route edges="E22 E18.410"/>
    </vehicle>
    <vehicle id="res_motorcycle_int012" type="res_motorcycle_int0_motorcycle" depart="144.00" departLane="best" departSpeed="max">
        <route edges="E22 E22.488"/>
    </vehicle>
    <vehicle id="res_motorcycle_int013" type="res_motorcycle_int0_motorcycle" depart="156.00" departLane="best" departSpeed="max">
        <route edges="E18 E18.410"/>
    </vehicle>
    <vehicle id="res_motorcycle_int014" type="res_motorcycle_int0_motorcycle" depart="168.00" departLane="best" departSpeed="max">
        <route edges="E22 E30.558"/>
    </vehicle>
    <vehicle id="res_motorcycle_int015" type="res_motorcycle_int0_motorcycle" depart="180.00" departLane="best" departSpeed="max">
        <route edges="E22 E30.558"/>
    </vehicle>
    <vehicle id="res_motorcycle_int017" type="res_motorcycle_int0_motorcycle" depart="204.00" departLane="best" departSpeed="max">
        <route edges="E22 E30.558"/>
    </vehicle>
    <vehicle id="res_motorcycle_int018" type="res_motorcycle_int0_motorcycle" depart="216.00" departLane="best" departSpeed="max">
        <route edges="E22 E30.558"/>
    </vehicle>
    <vehicle id="res_motorcycle_int019" type="res_motorcycle_int0_motorcycle" depart="228.00" departLane="best" departSpeed="max">
        <route edges="E22 E30.558"/>
    </vehicle>
    <vehicle id="res_motorcycle_int020" type="res_motorcycle_int0_motorcycle" depart="240.00" departLane="best" departSpeed="max">
        <route edges="E22 E18.410"/>
    </vehicle>
    <vehicle id="res_motorcycle_int021" type="res_motorcycle_int0_motorcycle" depart="252.00" departLane="best" departSpeed="max">
        <route edges="E18 E22.488"/>
    </vehicle>
    <vehicle id="res_motorcycle_int022" type="res_motorcycle_int0_motorcycle" depart="264.00" departLane="best" departSpeed="max">
        <route edges="E18 E18.410"/>
    </vehicle>
    <vehicle id="res_motorcycle_int023" type="res_motorcycle_int0_motorcycle" depart="276.00" departLane="best" departSpeed="max">
        <route edges="E18 E22.488"/>
    </vehicle>
    <vehicle id="res_motorcycle_int024" type="res_motorcycle_int0_motorcycle" depart="288.00" departLane="best" departSpeed="max">
        <route edges="E22 E22.488"/>
    </vehicle>
    <vehicle id="res_motorcycle_int025" type="res_motorcycle_int0_motorcycle" depart="300.00" departLane="best" departSpeed="max">
        <route edges="E22 E18.410"/>
    </vehicle>
    <vehicle id="res_motorcycle_int026" type="res_motorcycle_int0_motorcycle" depart="312.00" departLane="best" departSpeed="max">
        <route edges="E18 E31.622"/>
    </vehicle>
    <vehicle id="res_motorcycle_int027" type="res_motorcycle_int0_motorcycle" depart="324.00" departLane="best" departSpeed="max">
        <route edges="E22 E30.558"/>
    </vehicle>
    <vehicle id="res_motorcycle_int029" type="res_motorcycle_int0_motorcycle" depart="348.00" departLane="best" departSpeed="max">
        <route edges="E18 E22.488"/>
    </vehicle>
    <vehicle id="res_motorcycle_int030" type="res_motorcycle_int0_motorcycle" depart="360.00" departLane="best" departSpeed="max">
        <route edges="E22 E30.558"/>
    </vehicle>
    <vehicle id="res_motorcycle_int031" type="res_motorcycle_int0_motorcycle" depart="372.00" departLane="best" departSpeed="max">
        <route edges="E22 E30.558"/>
    </vehicle>
    <vehicle id="res_motorcycle_int033" type="res_motorcycle_int0_motorcycle" depart="396.00" departLane="best" departSpeed="max">
        <route edges="E18 E18.410"/>
    </vehicle>
    <vehicle id="res_motorcycle_int034" type="res_motorcycle_int0_motorcycle" depart="408.00" departLane="best" departSpeed="max">
        <route edges="E22 E22.488"/>
    </vehicle>
    <vehicle id="res_motorcycle_int035" type="res_motorcycle_int0_motorcycle" depart="420.00" departLane="best" departSpeed="max">
        <route edges="E18 E31.622"/>
    </vehicle>
    <vehicle id="res_motorcycle_int036" type="res_motorcycle_int0_motorcycle" depart="432.00" departLane="best" departSpeed="max">
        <route edges="E22 E22.488"/>
    </vehicle>
    <vehicle id="res_motorcycle_int037" type="res_motorcycle_int0_motorcycle" depart="444.00" departLane="best" departSpeed="max">
        <route edges="E22 E22.488"/>
    </vehicle>
    <vehicle id="res_motorcycle_int038" type="res_motorcycle_int0_motorcycle" depart="456.00" departLane="best" departSpeed="max">
        <route edges="E22 E22.488"/>
    </vehicle>
    <vehicle id="res_motorcycle_int039" type="res_motorcycle_int0_motorcycle" depart="468.00" departLane="best" departSpeed="max">
        <route edges="E18 E18.410"/>
    </vehicle>
    <vehicle id="res_motorcycle_int040" type="res_motorcycle_int0_motorcycle" depart="480.00" departLane="best" departSpeed="max">
        <route edges="E22 E22.488"/>
    </vehicle>
    <vehicle id="res_motorcycle_int042" type="res_motorcycle_int0_motorcycle" depart="504.00" departLane="best" departSpeed="max">
        <route edges="E22 E18.410"/>
    </vehicle>
    <vehicle id="res_motorcycle_int043" type="res_motorcycle_int0_motorcycle" depart="516.00" departLane="best" departSpeed="max">
        <route edges="E22 E30.558"/>
    </vehicle>
    <vehicle id="res_motorcycle_int044" type="res_motorcycle_int0_motorcycle" depart="528.00" departLane="best" departSpeed="max">
        <route edges="E18 E18.410"/>
    </vehicle>
    <vehicle id="res_motorcycle_int046" type="res_motorcycle_int0_motorcycle" depart="552.00" departLane="best" departSpeed="max">
        <route edges="E22 E22.488"/>
    </vehicle>
    <vehicle id="res_motorcycle_int047" type="res_motorcycle_int0_motorcycle" depart="564.00" departLane="best" departSpeed="max">
        <route edges="E18 E22.488"/>
    </vehicle>
    <vehicle id="res_motorcycle_int048" type="res_motorcycle_int0_motorcycle" depart="576.00" departLane="best" departSpeed="max">
        <route edges="E22 E30.558"/>
    </vehicle>
    <vehicle id="res_motorcycle_int051" type="res_motorcycle_int0_motorcycle" depart="612.00" departLane="best" departSpeed="max">
        <route edges="E22 E30.558"/>
    </vehicle>
    <vehicle id="res_motorcycle_int053" type="res_motorcycle_int0_motorcycle" depart="636.00" departLane="best" departSpeed="max">
        <route edges="E18 E22.488"/>
    </vehicle>
    <vehicle id="res_motorcycle_int055" type="res_motorcycle_int0_motorcycle" depart="660.00" departLane="best" departSpeed="max">
        <route edges="E22 E22.488"/>
    </vehicle>
    <vehicle id="res_motorcycle_int056" type="res_motorcycle_int0_motorcycle" depart="672.00" departLane="best" departSpeed="max">
        <route edges="E22 E18.410"/>
    </vehicle>
    <vehicle id="res_motorcycle_int059" type="res_motorcycle_int0_motorcycle" depart="708.00" departLane="best" departSpeed="max">
        <route edges="E22 E18.410"/>
    </vehicle>
    <vehicle id="res_motorcycle_int060" type="res_motorcycle_int0_motorcycle" depart="720.00" departLane="best" departSpeed="max">
        <route edges="E22 E30.558"/>
    </vehicle>
    <vehicle id="res_motorcycle_int061" type="res_motorcycle_int0_motorcycle" depart="732.00" departLane="best" departSpeed="max">
        <route edges="E22 E30.558"/>
    </vehicle>
    <vehicle id="res_motorcycle_int062" type="res_motorcycle_int0_motorcycle" depart="744.00" departLane="best" departSpeed="max">
        <route edges="E18 E22.488"/>
    </vehicle>
    <vehicle id="res_motorcycle_int063" type="res_motorcycle_int0_motorcycle" depart="756.00" departLane="best" departSpeed="max">
        <route edges="E18 E31.622"/>
    </vehicle>
    <vehicle id="res_motorcycle_int065" type="res_motorcycle_int0_motorcycle" depart="780.00" departLane="best" departSpeed="max">
        <route edges="E22 E18.410"/>
    </vehicle>
    <vehicle id="res_motorcycle_int067" type="res_motorcycle_int0_motorcycle" depart="804.00" departLane="best" departSpeed="max">
        <route edges="E18 E22.488"/>
    </vehicle>
    <vehicle id="res_motorcycle_int068" type="res_motorcycle_int0_motorcycle" depart="816.00" departLane="best" departSpeed="max">
        <route edges="E18 E31.622"/>
    </vehicle>
    <vehicle id="res_motorcycle_int069" type="res_motorcycle_int0_motorcycle" depart="828.00" departLane="best" departSpeed="max">
        <route edges="E22 E18.410"/>
    </vehicle>
    <vehicle id="res_motorcycle_int070" type="res_motorcycle_int0_motorcycle" depart="840.00" departLane="best" departSpeed="max">
        <route edges="E22 E30.558"/>
    </vehicle>
    <vehicle id="res_motorcycle_int071" type="res_motorcycle_int0_motorcycle" depart="852.00" departLane="best" departSpeed="max">
        <route edges="E18 E31.622"/>
    </vehicle>
    <vehicle id="res_motorcycle_int072" type="res_motorcycle_int0_motorcycle" depart="864.00" departLane="best" departSpeed="max">
        <route edges="E22 E18.410"/>
    </vehicle>
    <vehicle id="res_motorcycle_int073" type="res_motorcycle_int0_motorcycle" depart="876.00" departLane="best" departSpeed="max">
        <route edges="E22 E30.558"/>
    </vehicle>
    <vehicle id="res_motorcycle_int074" type="res_motorcycle_int0_motorcycle" depart="888.00" departLane="best" departSpeed="max">
        <route edges="E18 E22.488"/>
    </vehicle>
    <vehicle id="res_motorcycle_int075" type="res_motorcycle_int0_motorcycle" depart="900.00" departLane="best" departSpeed="max">
        <route edges="E22 E30.558"/>
    </vehicle>
    <vehicle id="res_motorcycle_int076" type="res_motorcycle_int0_motorcycle" depart="912.00" departLane="best" departSpeed="max">
        <route edges="E22 E30.558"/>
    </vehicle>
    <vehicle id="res_motorcycle_int077" type="res_motorcycle_int0_motorcycle" depart="924.00" departLane="best" departSpeed="max">
        <route edges="E18 E18.410"/>
    </vehicle>
    <vehicle id="res_motorcycle_int078" type="res_motorcycle_int0_motorcycle" depart="936.00" departLane="best" departSpeed="max">
        <route edges="E22 E30.558"/>
    </vehicle>
    <vehicle id="res_motorcycle_int079" type="res_motorcycle_int0_motorcycle" depart="948.00" departLane="best" departSpeed="max">
        <route edges="E18 E18.410"/>
    </vehicle>
    <vehicle id="res_motorcycle_int081" type="res_motorcycle_int0_motorcycle" depart="972.00" departLane="best" departSpeed="max">
        <route edges="E18 E31.622"/>
    </vehicle>
    <vehicle id="res_motorcycle_int082" type="res_motorcycle_int0_motorcycle" depart="984.00" departLane="best" departSpeed="max">
        <route edges="E22 E18.410"/>
    </vehicle>
    <vehicle id="res_motorcycle_int084" type="res_motorcycle_int0_motorcycle" depart="1008.00" departLane="best" departSpeed="max">
        <route edges="E18 E18.410"/>
    </vehicle>
    <vehicle id="res_motorcycle_int085" type="res_motorcycle_int0_motorcycle" depart="1020.00" departLane="best" departSpeed="max">
        <route edges="E22 E30.558"/>
    </vehicle>
    <vehicle id="res_motorcycle_int087" type="res_motorcycle_int0_motorcycle" depart="1044.00" departLane="best" departSpeed="max">
        <route edges="E22 E18.410"/>
    </vehicle>
    <vehicle id="res_motorcycle_int088" type="res_motorcycle_int0_motorcycle" depart="1056.00" departLane="best" departSpeed="max">
        <route edges="E18 E22.488"/>
    </vehicle>
    <vehicle id="res_motorcycle_int089" type="res_motorcycle_int0_motorcycle" depart="1068.00" departLane="best" departSpeed="max">
        <route edges="E22 E22.488"/>
    </vehicle>
    <vehicle id="res_motorcycle_int090" type="res_motorcycle_int0_motorcycle" depart="1080.00" departLane="best" departSpeed="max">
        <route edges="E22 E30.558"/>
    </vehicle>
    <vehicle id="res_motorcycle_int091" type="res_motorcycle_int0_motorcycle" depart="1092.00" departLane="best" departSpeed="max">
        <route edges="E22 E18.410"/>
    </vehicle>
    <vehicle id="res_motorcycle_int092" type="res_motorcycle_int0_motorcycle" depart="1104.00" departLane="best" departSpeed="max">
        <route edges="E22 E22.488"/>
    </vehicle>
    <vehicle id="res_motorcycle_int093" type="res_motorcycle_int0_motorcycle" depart="1116.00" departLane="best" departSpeed="max">
        <route edges="E22 E18.410"/>
    </vehicle>
    <vehicle id="res_motorcycle_int094" type="res_motorcycle_int0_motorcycle" depart="1128.00" departLane="best" departSpeed="max">
        <route edges="E18 E22.488"/>
    </vehicle>
    <vehicle id="res_motorcycle_int095" type="res_motorcycle_int0_motorcycle" depart="1140.00" departLane="best" departSpeed="max">
        <route edges="E22 E22.488"/>
    </vehicle>
    <vehicle id="res_motorcycle_int096" type="res_motorcycle_int0_motorcycle" depart="1152.00" departLane="best" departSpeed="max">
        <route edges="E18 E31.622"/>
    </vehicle>
    <vehicle id="res_motorcycle_int098" type="res_motorcycle_int0_motorcycle" depart="1176.00" departLane="best" departSpeed="max">
        <route edges="E22 E18.410"/>
    </vehicle>
    <vehicle id="res_motorcycle_int0101" type="res_motorcycle_int0_motorcycle" depart="1212.00" departLane="best" departSpeed="max">
        <route edges="E22 E18.410"/>
    </vehicle>
    <vehicle id="res_motorcycle_int0102" type="res_motorcycle_int0_motorcycle" depart="1224.00" departLane="best" departSpeed="max">
        <route edges="E22 E18.410"/>
    </vehicle>
    <vehicle id="res_motorcycle_int0103" type="res_motorcycle_int0_motorcycle" depart="1236.00" departLane="best" departSpeed="max">
        <route edges="E22 E18.410"/>
    </vehicle>
    <vehicle id="res_motorcycle_int0105" type="res_motorcycle_int0_motorcycle" depart="1260.00" departLane="best" departSpeed="max">
        <route edges="E18 E31.622"/>
    </vehicle>
    <vehicle id="res_motorcycle_int0106" type="res_motorcycle_int0_motorcycle" depart="1272.00" departLane="best" departSpeed="max">
        <route edges="E22 E22.488"/>
    </vehicle>
    <vehicle id="res_motorcycle_int0108" type="res_motorcycle_int0_motorcycle" depart="1296.00" departLane="best" departSpeed="max">
        <route edges="E22 E30.558"/>
    </vehicle>
    <vehicle id="res_motorcycle_int0109" type="res_motorcycle_int0_motorcycle" depart="1308.00" departLane="best" departSpeed="max">
        <route edges="E18 E22.488"/>
    </vehicle>
    <vehicle id="res_motorcycle_int0110" type="res_motorcycle_int0_motorcycle" depart="1320.00" departLane="best" departSpeed="max">
        <route edges="E22 E30.558"/>
    </vehicle>
    <vehicle id="res_motorcycle_int0111" type="res_motorcycle_int0_motorcycle" depart="1332.00" departLane="best" departSpeed="max">
        <route edges="E22 E30.558"/>
    </vehicle>
    <vehicle id="res_motorcycle_int0114" type="res_motorcycle_int0_motorcycle" depart="1368.00" departLane="best" departSpeed="max">
        <route edges="E18 E31.622"/>
    </vehicle>
    <vehicle id="res_motorcycle_int0115" type="res_motorcycle_int0_motorcycle" depart="1380.00" departLane="best" departSpeed="max">
        <route edges="E18 E18.410"/>
    </vehicle>
    <vehicle id="res_motorcycle_int0116" type="res_motorcycle_int0_motorcycle" depart="1392.00" departLane="best" departSpeed="max">
        <route edges="E22 E30.558"/>
    </vehicle>
    <vehicle id="res_motorcycle_int0117" type="res_motorcycle_int0_motorcycle" depart="1404.00" departLane="best" departSpeed="max">
        <route edges="E18 E18.410"/>
    </vehicle>
    <vehicle id="res_motorcycle_int0118" type="res_motorcycle_int0_motorcycle" depart="1416.00" departLane="best" departSpeed="max">
        <route edges="E22 E18.410"/>
    </vehicle>
    <vehicle id="res_motorcycle_int0119" type="res_motorcycle_int0_motorcycle" depart="1428.00" departLane="best" departSpeed="max">
        <route edges="E22 E30.558"/>
    </vehicle>
    <vehicle id="res_motorcycle_int0120" type="res_motorcycle_int0_motorcycle" depart="1440.00" departLane="best" departSpeed="max">
        <route edges="E22 E30.558"/>
    </vehicle>
    <vehicle id="res_motorcycle_int0123" type="res_motorcycle_int0_motorcycle" depart="1476.00" departLane="best" departSpeed="max">
        <route edges="E18 E22.488"/>
    </vehicle>
    <vehicle id="res_motorcycle_int0124" type="res_motorcycle_int0_motorcycle" depart="1488.00" departLane="best" departSpeed="max">
        <route edges="E22 E22.488"/>
    </vehicle>
    <vehicle id="res_motorcycle_int0126" type="res_motorcycle_int0_motorcycle" depart="1512.00" departLane="best" departSpeed="max">
        <route edges="E18 E22.488"/>
    </vehicle>
    <vehicle id="res_motorcycle_int0128" type="res_motorcycle_int0_motorcycle" depart="1536.00" departLane="best" departSpeed="max">
        <route edges="E18 E18.410"/>
    </vehicle>
    <vehicle id="res_motorcycle_int0129" type="res_motorcycle_int0_motorcycle" depart="1548.00" departLane="best" departSpeed="max">
        <route edges="E18 E31.622"/>
    </vehicle>
    <vehicle id="res_motorcycle_int0131" type="res_motorcycle_int0_motorcycle" depart="1572.00" departLane="best" departSpeed="max">
        <route edges="E22 E18.410"/>
    </vehicle>
    <vehicle id="res_motorcycle_int0132" type="res_motorcycle_int0_motorcycle" depart="1584.00" departLane="best" departSpeed="max">
        <route edges="E22 E30.558"/>
    </vehicle>
    <vehicle id="res_motorcycle_int0134" type="res_motorcycle_int0_motorcycle" depart="1608.00" departLane="best" departSpeed="max">
        <route edges="E22 E18.410"/>
    </vehicle>
    <vehicle id="res_motorcycle_int0135" type="res_motorcycle_int0_motorcycle" depart="1620.00" departLane="best" departSpeed="max">
        <route edges="E22 E22.488"/>
    </vehicle>
    <vehicle id="res_motorcycle_int0137" type="res_motorcycle_int0_motorcycle" depart="1644.00" departLane="best" departSpeed="max">
        <route edges="E18 E18.410"/>
    </vehicle>
    <vehicle id="res_motorcycle_int0140" type="res_motorcycle_int0_motorcycle" depart="1680.00" departLane="best" departSpeed="max">
        <route edges="E22 E18.410"/>
    </vehicle>
    <vehicle id="res_motorcycle_int0141" type="res_motorcycle_int0_motorcycle" depart="1692.00" departLane="best" departSpeed="max">
        <route edges="E22 E22.488"/>
    </vehicle>
    <vehicle id="res_motorcycle_int0143" type="res_motorcycle_int0_motorcycle" depart="1716.00" departLane="best" departSpeed="max">
        <route edges="E22 E18.410"/>
    </vehicle>
    <vehicle id="res_motorcycle_int0144" type="res_motorcycle_int0_motorcycle" depart="1728.00" departLane="best" departSpeed="max">
        <route edges="E22 E22.488"/>
    </vehicle>
    <vehicle id="res_motorcycle_int0145" type="res_motorcycle_int0_motorcycle" depart="1740.00" departLane="best" departSpeed="max">
        <route edges="E18 E31.622"/>
    </vehicle>
    <vehicle id="res_motorcycle_int0146" type="res_motorcycle_int0_motorcycle" depart="1752.00" departLane="best" departSpeed="max">
        <route edges="E22 E22.488"/>
    </vehicle>
    <vehicle id="res_motorcycle_int0147" type="res_motorcycle_int0_motorcycle" depart="1764.00" departLane="best" departSpeed="max">
        <route edges="E22 E30.558"/>
    </vehicle>
    <vehicle id="res_motorcycle_int0148" type="res_motorcycle_int0_motorcycle" depart="1776.00" departLane="best" departSpeed="max">
        <route edges="E22 E18.410"/>
    </vehicle>
    <vehicle id="res_motorcycle_int0149" type="res_motorcycle_int0_motorcycle" depart="1788.00" departLane="best" departSpeed="max">
        <route edges="E18 E31.622"/>
    </vehicle>
    <vehicle id="res_motorcycle_int0150" type="res_motorcycle_int0_motorcycle" depart="1800.00" departLane="best" departSpeed="max">
        <route edges="E22 E30.558"/>
    </vehicle>
    <vehicle id="res_motorcycle_int0151" type="res_motorcycle_int0_motorcycle" depart="1812.00" departLane="best" departSpeed="max">
        <route edges="E22 E30.558"/>
    </vehicle>
    <vehicle id="res_motorcycle_int0152" type="res_motorcycle_int0_motorcycle" depart="1824.00" departLane="best" departSpeed="max">
        <route edges="E18 E18.410"/>
    </vehicle>
    <vehicle id="res_motorcycle_int0155" type="res_motorcycle_int0_motorcycle" depart="1860.00" departLane="best" departSpeed="max">
        <route edges="E22 E18.410"/>
    </vehicle>
    <vehicle id="res_motorcycle_int0156" type="res_motorcycle_int0_motorcycle" depart="1872.00" departLane="best" departSpeed="max">
        <route edges="E18 E18.410"/>
    </vehicle>
    <vehicle id="res_motorcycle_int0158" type="res_motorcycle_int0_motorcycle" depart="1896.00" departLane="best" departSpeed="max">
        <route edges="E22 E30.558"/>
    </vehicle>
    <vehicle id="res_motorcycle_int0159" type="res_motorcycle_int0_motorcycle" depart="1908.00" departLane="best" departSpeed="max">
        <route edges="E18 E31.622"/>
    </vehicle>
    <vehicle id="res_motorcycle_int0165" type="res_motorcycle_int0_motorcycle" depart="1980.00" departLane="best" departSpeed="max">
        <route edges="E22 E22.488"/>
    </vehicle>
    <vehicle id="res_motorcycle_int0166" type="res_motorcycle_int0_motorcycle" depart="1992.00" departLane="best" departSpeed="max">
        <route edges="E22 E18.410"/>
    </vehicle>
    <vehicle id="res_motorcycle_int0168" type="res_motorcycle_int0_motorcycle" depart="2016.00" departLane="best" departSpeed="max">
        <route edges="E18 E31.622"/>
    </vehicle>
    <vehicle id="res_motorcycle_int0169" type="res_motorcycle_int0_motorcycle" depart="2028.00" departLane="best" departSpeed="max">
        <route edges="E22 E22.488"/>
    </vehicle>
    <vehicle id="res_motorcycle_int0170" type="res_motorcycle_int0_motorcycle" depart="2040.00" departLane="best" departSpeed="max">
        <route edges="E22 E18.410"/>
    </vehicle>
    <vehicle id="res_motorcycle_int0171" type="res_motorcycle_int0_motorcycle" depart="2052.00" departLane="best" departSpeed="max">
        <route edges="E18 E18.410"/>
    </vehicle>
    <vehicle id="res_motorcycle_int0173" type="res_motorcycle_int0_motorcycle" depart="2076.00" departLane="best" departSpeed="max">
        <route edges="E22 E22.488"/>
    </vehicle>
    <vehicle id="res_motorcycle_int0174" type="res_motorcycle_int0_motorcycle" depart="2088.00" departLane="best" departSpeed="max">
        <route edges="E22 E22.488"/>
    </vehicle>
    <vehicle id="res_motorcycle_int0175" type="res_motorcycle_int0_motorcycle" depart="2100.00" departLane="best" departSpeed="max">
        <route edges="E22 E30.558"/>
    </vehicle>
    <vehicle id="res_motorcycle_int0176" type="res_motorcycle_int0_motorcycle" depart="2112.00" departLane="best" departSpeed="max">
        <route edges="E22 E18.410"/>
    </vehicle>
    <vehicle id="res_motorcycle_int0177" type="res_motorcycle_int0_motorcycle" depart="2124.00" departLane="best" departSpeed="max">
        <route edges="E22 E18.410"/>
    </vehicle>
    <vehicle id="res_motorcycle_int0178" type="res_motorcycle_int0_motorcycle" depart="2136.00" departLane="best" departSpeed="max">
        <route edges="E22 E22.488"/>
    </vehicle>
    <vehicle id="res_motorcycle_int0179" type="res_motorcycle_int0_motorcycle" depart="2148.00" departLane="best" departSpeed="max">
        <route edges="E18 E22.488"/>
    </vehicle>
    <vehicle id="res_motorcycle_int0180" type="res_motorcycle_int0_motorcycle" depart="2160.00" departLane="best" departSpeed="max">
        <route edges="E22 E22.488"/>
    </vehicle>
    <vehicle id="res_motorcycle_int0181" type="res_motorcycle_int0_motorcycle" depart="2172.00" departLane="best" departSpeed="max">
        <route edges="E22 E30.558"/>
    </vehicle>
    <vehicle id="res_motorcycle_int0182" type="res_motorcycle_int0_motorcycle" depart="2184.00" departLane="best" departSpeed="max">
        <route edges="E22 E30.558"/>
    </vehicle>
    <vehicle id="res_motorcycle_int0184" type="res_motorcycle_int0_motorcycle" depart="2208.00" departLane="best" departSpeed="max">
        <route edges="E18 E31.622"/>
    </vehicle>
    <vehicle id="res_motorcycle_int0185" type="res_motorcycle_int0_motorcycle" depart="2220.00" departLane="best" departSpeed="max">
        <route edges="E22 E30.558"/>
    </vehicle>
    <vehicle id="res_motorcycle_int0186" type="res_motorcycle_int0_motorcycle" depart="2232.00" departLane="best" departSpeed="max">
        <route edges="E22 E30.558"/>
    </vehicle>
    <vehicle id="res_motorcycle_int0187" type="res_motorcycle_int0_motorcycle" depart="2244.00" departLane="best" departSpeed="max">
        <route edges="E22 E18.410"/>
    </vehicle>
    <vehicle id="res_motorcycle_int0188" type="res_motorcycle_int0_motorcycle" depart="2256.00" departLane="best" departSpeed="max">
        <route edges="E22 E22.488"/>
    </vehicle>
    <vehicle id="res_motorcycle_int0190" type="res_motorcycle_int0_motorcycle" depart="2280.00" departLane="best" departSpeed="max">
        <route edges="E22 E22.488"/>
    </vehicle>
    <vehicle id="res_motorcycle_int0191" type="res_motorcycle_int0_motorcycle" depart="2292.00" departLane="best" departSpeed="max">
        <route edges="E22 E22.488"/>
    </vehicle>
    <vehicle id="res_motorcycle_int0192" type="res_motorcycle_int0_motorcycle" depart="2304.00" departLane="best" departSpeed="max">
        <route edges="E22 E22.488"/>
    </vehicle>
    <vehicle id="res_motorcycle_int0193" type="res_motorcycle_int0_motorcycle" depart="2316.00" departLane="best" departSpeed="max">
        <route edges="E18 E22.488"/>
    </vehicle>
    <vehicle id="res_motorcycle_int0194" type="res_motorcycle_int0_motorcycle" depart="2328.00" departLane="best" departSpeed="max">
        <route edges="E22 E30.558"/>
    </vehicle>
    <vehicle id="res_motorcycle_int0195" type="res_motorcycle_int0_motorcycle" depart="2340.00" departLane="best" departSpeed="max">
        <route edges="E22 E30.558"/>
    </vehicle>
    <vehicle id="res_motorcycle_int0197" type="res_motorcycle_int0_motorcycle" depart="2364.00" departLane="best" departSpeed="max">
        <route edges="E18 E22.488"/>
    </vehicle>
    <vehicle id="res_motorcycle_int0198" type="res_motorcycle_int0_motorcycle" depart="2376.00" departLane="best" departSpeed="max">
        <route edges="E22 E30.558"/>
    </vehicle>
    <vehicle id="res_motorcycle_int0199" type="res_motorcycle_int0_motorcycle" depart="2388.00" departLane="best" departSpeed="max">
        <route edges="E22 E22.488"/>
    </vehicle>
    <vehicle id="res_motorcycle_int0200" type="res_motorcycle_int0_motorcycle" depart="2400.00" departLane="best" departSpeed="max">
        <route edges="E22 E18.410"/>
    </vehicle>
    <vehicle id="res_motorcycle_int0202" type="res_motorcycle_int0_motorcycle" depart="2424.00" departLane="best" departSpeed="max">
        <route edges="E22 E18.410"/>
    </vehicle>
    <vehicle id="res_motorcycle_int0204" type="res_motorcycle_int0_motorcycle" depart="2448.00" departLane="best" departSpeed="max">
        <route edges="E22 E22.488"/>
    </vehicle>
    <vehicle id="res_motorcycle_int0206" type="res_motorcycle_int0_motorcycle" depart="2472.00" departLane="best" departSpeed="max">
        <route edges="E22 E18.410"/>
    </vehicle>
    <vehicle id="res_motorcycle_int0207" type="res_motorcycle_int0_motorcycle" depart="2484.00" departLane="best" departSpeed="max">
        <route edges="E18 E18.410"/>
    </vehicle>