<?xml version="1.0" encoding="UTF-8"?>

<!-- generated on 2025-08-16 00:36:01.045794 by randomTrips.py UNKNOWN
<configuration>
    <net-file value="osm.net.xml.gz"/>
    <weights-prefix value="random_edge_priority_interval_2"/>
    <output-trip-file value="osm.res_motorcycle.interval_2.trips.xml"/>
    <route-file value="osm.res_motorcycle.interval_2.rou.xml"/>
    <prefix value="res_motorcycle_int2"/>
    <trip-attributes value="departLane=&quot;best&quot;"/>
    <fringe-start-attributes value="departSpeed=&quot;max&quot;"/>
    <vehicle-class value="motorcycle"/>
    <vclass value="motorcycle"/>
    <remove-loops value="True"/>
    <validate value="True"/>
    <verbose value="True"/>
    <begin value="7201.0"/>
    <end value="10800.0"/>
    <insertion-rate value="900.2500694637399"/>
</configuration>
-->

<!-- generated on 2025-08-16 00:36:00 by Eclipse SUMO duarouter Version 1.22.0
<duarouterConfiguration xmlns:xsi="http://www.w3.org/2001/XMLSchema-instance" xsi:noNamespaceSchemaLocation="http://sumo.dlr.de/xsd/duarouterConfiguration.xsd">

    <input>
        <net-file value="osm.net.xml.gz"/>
        <route-files value="osm.res_motorcycle.interval_2.trips.xml"/>
    </input>

    <output>
        <output-file value="osm.res_motorcycle.interval_2.trips.xml.tmp"/>
        <alternatives-output value="NUL"/>
        <write-trips value="true"/>
    </output>

    <processing>
        <remove-loops value="true"/>
    </processing>

    <time>
        <begin value="7201.0"/>
        <end value="10800.0"/>
    </time>

    <report>
        <verbose value="true"/>
        <ignore-errors value="true"/>
        <no-step-log value="true"/>
    </report>

</duarouterConfiguration>
-->

<routes xmlns:xsi="http://www.w3.org/2001/XMLSchema-instance" xsi:noNamespaceSchemaLocation="http://sumo.dlr.de/xsd/routes_file.xsd">
    <vType id="res_motorcycle_int2_motorcycle" vClass="motorcycle"/>
    <trip id="res_motorcycle_int20" type="res_motorcycle_int2_motorcycle" depart="7201.00" departLane="best" departSpeed="max" from="E31" to="E18.410"/>
    <trip id="res_motorcycle_int21" type="res_motorcycle_int2_motorcycle" depart="7205.00" departLane="best" departSpeed="max" from="E31" to="E18.410"/>
    <trip id="res_motorcycle_int22" type="res_motorcycle_int2_motorcycle" depart="7209.00" departLane="best" departSpeed="max" from="E31" to="E30.558"/>
    <trip id="res_motorcycle_int23" type="res_motorcycle_int2_motorcycle" depart="7213.00" departLane="best" departSpeed="max" from="E31" to="E18.410"/>
    <trip id="res_motorcycle_int24" type="res_motorcycle_int2_motorcycle" depart="7217.00" departLane="best" departSpeed="max" from="E31" to="E18.410"/>
    <trip id="res_motorcycle_int25" type="res_motorcycle_int2_motorcycle" depart="7220.99" departLane="best" departSpeed="max" from="E31" to="E30.558"/>
    <trip id="res_motorcycle_int26" type="res_motorcycle_int2_motorcycle" depart="7224.99" departLane="best" departSpeed="max" from="E18" to="E18.410"/>
    <trip id="res_motorcycle_int27" type="res_motorcycle_int2_motorcycle" depart="7228.99" departLane="best" departSpeed="max" from="E31" to="E30.558"/>
    <trip id="res_motorcycle_int28" type="res_motorcycle_int2_motorcycle" depart="7232.99" departLane="best" departSpeed="max" from="E31" to="E30.558"/>
    <trip id="res_motorcycle_int29" type="res_motorcycle_int2_motorcycle" depart="7236.99" departLane="best" departSpeed="max" from="E31" to="E18.410"/>
    <trip id="res_motorcycle_int210" type="res_motorcycle_int2_motorcycle" depart="7240.99" departLane="best" departSpeed="max" from="E31" to="E30.558"/>
    <trip id="res_motorcycle_int211" type="res_motorcycle_int2_motorcycle" depart="7244.99" departLane="best" departSpeed="max" from="E31" to="E18.410"/>
    <trip id="res_motorcycle_int213" type="res_motorcycle_int2_motorcycle" depart="7252.99" departLane="best" departSpeed="max" from="E18" to="E18.410"/>
    <trip id="res_motorcycle_int214" type="res_motorcycle_int2_motorcycle" depart="7256.98" departLane="best" departSpeed="max" from="E31" to="E30.558"/>
    <trip id="res_motorcycle_int215" type="res_motorcycle_int2_motorcycle" depart="7260.98" departLane="best" departSpeed="max" from="E31" to="E30.558"/>
    <trip id="res_motorcycle_int216" type="res_motorcycle_int2_motorcycle" depart="7264.98" departLane="best" departSpeed="max" from="E31" to="E31.622"/>
    <trip id="res_motorcycle_int217" type="res_motorcycle_int2_motorcycle" depart="7268.98" departLane="best" departSpeed="max" from="E31" to="E30.558"/>
    <trip id="res_motorcycle_int218" type="res_motorcycle_int2_motorcycle" depart="7272.98" departLane="best" departSpeed="max" from="E31" to="E30.558"/>
    <trip id="res_motorcycle_int219" type="res_motorcycle_int2_motorcycle" depart="7276.98" departLane="best" departSpeed="max" from="E31" to="E30.558"/>
    <trip id="res_motorcycle_int220" type="res_motorcycle_int2_motorcycle" depart="7280.98" departLane="best" departSpeed="max" from="E31" to="E18.410"/>
    <trip id="res_motorcycle_int222" type="res_motorcycle_int2_motorcycle" depart="7288.98" departLane="best" departSpeed="max" from="E18" to="E18.410"/>
    <trip id="res_motorcycle_int223" type="res_motorcycle_int2_motorcycle" depart="7292.97" departLane="best" departSpeed="max" from="E18" to="E22.488"/>
    <trip id="res_motorcycle_int225" type="res_motorcycle_int2_motorcycle" depart="7300.97" departLane="best" departSpeed="max" from="E31" to="E18.410"/>
    <trip id="res_motorcycle_int226" type="res_motorcycle_int2_motorcycle" depart="7304.97" departLane="best" departSpeed="max" from="E31" to="E31.622"/>
    <trip id="res_motorcycle_int227" type="res_motorcycle_int2_motorcycle" depart="7308.97" departLane="best" departSpeed="max" from="E31" to="E30.558"/>
    <trip id="res_motorcycle_int229" type="res_motorcycle_int2_motorcycle" depart="7316.97" departLane="best" departSpeed="max" from="E18" to="E22.488"/>
    <trip id="res_motorcycle_int230" type="res_motorcycle_int2_motorcycle" depart="7320.97" departLane="best" departSpeed="max" from="E31" to="E30.558"/>
    <trip id="res_motorcycle_int231" type="res_motorcycle_int2_motorcycle" depart="7324.97" departLane="best" departSpeed="max" from="E31" to="E30.558"/>
    <trip id="res_motorcycle_int232" type="res_motorcycle_int2_motorcycle" depart="7328.96" departLane="best" departSpeed="max" from="E31" to="E31.622"/>
    <trip id="res_motorcycle_int233" type="res_motorcycle_int2_motorcycle" depart="7332.96" departLane="best" departSpeed="max" from="E31" to="E18.410"/>
    <trip id="res_motorcycle_int235" type="res_motorcycle_int2_motorcycle" depart="7340.96" departLane="best" departSpeed="max" from="E18" to="E31.622"/>
    <trip id="res_motorcycle_int239" type="res_motorcycle_int2_motorcycle" depart="7356.96" departLane="best" departSpeed="max" from="E31" to="E18.410"/>
    <trip id="res_motorcycle_int241" type="res_motorcycle_int2_motorcycle" depart="7364.95" departLane="best" departSpeed="max" from="E31" to="E31.622"/>
    <trip id="res_motorcycle_int242" type="res_motorcycle_int2_motorcycle" depart="7368.95" departLane="best" departSpeed="max" from="E31" to="E18.410"/>
    <trip id="res_motorcycle_int243" type="res_motorcycle_int2_motorcycle" depart="7372.95" departLane="best" departSpeed="max" from="E31" to="E30.558"/>
    <trip id="res_motorcycle_int244" type="res_motorcycle_int2_motorcycle" depart="7376.95" departLane="best" departSpeed="max" from="E18" to="E18.410"/>
    <trip id="res_motorcycle_int247" type="res_motorcycle_int2_motorcycle" depart="7388.95" departLane="best" departSpeed="max" from="E18" to="E22.488"/>
    <trip id="res_motorcycle_int248" type="res_motorcycle_int2_motorcycle" depart="7392.95" departLane="best" departSpeed="max" from="E31" to="E30.558"/>
    <trip id="res_motorcycle_int249" type="res_motorcycle_int2_motorcycle" depart="7396.95" departLane="best" departSpeed="max" from="E31" to="E31.622"/>
    <trip id="res_motorcycle_int251" type="res_motorcycle_int2_motorcycle" depart="7404.94" departLane="best" departSpeed="max" from="E31" to="E30.558"/>
    <trip id="res_motorcycle_int252" type="res_motorcycle_int2_motorcycle" depart="7408.94" departLane="best" departSpeed="max" from="E31" to="E30.558"/>
    <trip id="res_motorcycle_int253" type="res_motorcycle_int2_motorcycle" depart="7412.94" departLane="best" departSpeed="max" from="E18" to="E22.488"/>
    <trip id="res_motorcycle_int254" type="res_motorcycle_int2_motorcycle" depart="7416.94" departLane="best" departSpeed="max" from="E31" to="E31.622"/>
    <trip id="res_motorcycle_int256" type="res_motorcycle_int2_motorcycle" depart="7424.94" departLane="best" departSpeed="max" from="E31" to="E18.410"/>
    <trip id="res_motorcycle_int257" type="res_motorcycle_int2_motorcycle" depart="7428.94" departLane="best" departSpeed="max" from="E31" to="E31.622"/>
    <trip id="res_motorcycle_int258" type="res_motorcycle_int2_motorcycle" depart="7432.94" departLane="best" departSpeed="max" from="E31" to="E30.558"/>
    <trip id="res_motorcycle_int259" type="res_motorcycle_int2_motorcycle" depart="7436.93" departLane="best" departSpeed="max" from="E31" to="E18.410"/>
    <trip id="res_motorcycle_int260" type="res_motorcycle_int2_motorcycle" depart="7440.93" departLane="best" departSpeed="max" from="E31" to="E30.558"/>
    <trip id="res_motorcycle_int261" type="res_motorcycle_int2_motorcycle" depart="7444.93" departLane="best" departSpeed="max" from="E31" to="E30.558"/>
    <trip id="res_motorcycle_int262" type="res_motorcycle_int2_motorcycle" depart="7448.93" departLane="best" departSpeed="max" from="E18" to="E22.488"/>
    <trip id="res_motorcycle_int263" type="res_motorcycle_int2_motorcycle" depart="7452.93" departLane="best" departSpeed="max" from="E18" to="E31.622"/>
    <trip id="res_motorcycle_int264" type="res_motorcycle_int2_motorcycle" depart="7456.93" departLane="best" departSpeed="max" from="E31" to="E31.622"/>
    <trip id="res_motorcycle_int265" type="res_motorcycle_int2_motorcycle" depart="7460.93" departLane="best" departSpeed="max" from="E31" to="E18.410"/>
    <trip id="res_motorcycle_int266" type="res_motorcycle_int2_motorcycle" depart="7464.93" departLane="best" departSpeed="max" from="E31" to="E31.622"/>
    <trip id="res_motorcycle_int267" type="res_motorcycle_int2_motorcycle" depart="7468.93" departLane="best" departSpeed="max" from="E18" to="E22.488"/>
    <trip id="res_motorcycle_int268" type="res_motorcycle_int2_motorcycle" depart="7472.92" departLane="best" departSpeed="max" from="E18" to="E31.622"/>
    <trip id="res_motorcycle_int269" type="res_motorcycle_int2_motorcycle" depart="7476.92" departLane="best" departSpeed="max" from="E31" to="E18.410"/>
    <trip id="res_motorcycle_int270" type="res_motorcycle_int2_motorcycle" depart="7480.92" departLane="best" departSpeed="max" from="E31" to="E30.558"/>
    <trip id="res_motorcycle_int271" type="res_motorcycle_int2_motorcycle" depart="7484.92" departLane="best" departSpeed="max" from="E31" to="E31.622"/>
    <trip id="res_motorcycle_int272" type="res_motorcycle_int2_motorcycle" depart="7488.92" departLane="best" departSpeed="max" from="E31" to="E18.410"/>
    <trip id="res_motorcycle_int273" type="res_motorcycle_int2_motorcycle" depart="7492.92" departLane="best" departSpeed="max" from="E31" to="E30.558"/>
    <trip id="res_motorcycle_int274" type="res_motorcycle_int2_motorcycle" depart="7496.92" departLane="best" departSpeed="max" from="E18" to="E22.488"/>
    <trip id="res_motorcycle_int275" type="res_motorcycle_int2_motorcycle" depart="7500.92" departLane="best" departSpeed="max" from="E31" to="E30.558"/>
    <trip id="res_motorcycle_int276" type="res_motorcycle_int2_motorcycle" depart="7504.92" departLane="best" departSpeed="max" from="E31" to="E30.558"/>
    <trip id="res_motorcycle_int277" type="res_motorcycle_int2_motorcycle" depart="7508.91" departLane="best" departSpeed="max" from="E18" to="E18.410"/>
    <trip id="res_motorcycle_int278" type="res_motorcycle_int2_motorcycle" depart="7512.91" departLane="best" departSpeed="max" from="E31" to="E30.558"/>
    <trip id="res_motorcycle_int279" type="res_motorcycle_int2_motorcycle" depart="7516.91" departLane="best" departSpeed="max" from="E31" to="E18.410"/>
    <trip id="res_motorcycle_int281" type="res_motorcycle_int2_motorcycle" depart="7524.91" departLane="best" departSpeed="max" from="E31" to="E31.622"/>
    <trip id="res_motorcycle_int282" type="res_motorcycle_int2_motorcycle" depart="7528.91" departLane="best" departSpeed="max" from="E31" to="E18.410"/>
    <trip id="res_motorcycle_int283" type="res_motorcycle_int2_motorcycle" depart="7532.91" departLane="best" departSpeed="max" from="E31" to="E30.558"/>
    <trip id="res_motorcycle_int284" type="res_motorcycle_int2_motorcycle" depart="7536.91" departLane="best" departSpeed="max" from="E18" to="E18.410"/>
    <trip id="res_motorcycle_int285" type="res_motorcycle_int2_motorcycle" depart="7540.91" departLane="best" departSpeed="max" from="E31" to="E30.558"/>
    <trip id="res_motorcycle_int286" type="res_motorcycle_int2_motorcycle" depart="7544.90" departLane="best" departSpeed="max" from="E31" to="E31.622"/>
    <trip id="res_motorcycle_int287" type="res_motorcycle_int2_motorcycle" depart="7548.90" departLane="best" departSpeed="max" from="E31" to="E18.410"/>
    <trip id="res_motorcycle_int288" type="res_motorcycle_int2_motorcycle" depart="7552.90" departLane="best" departSpeed="max" from="E18" to="E22.488"/>
    <trip id="res_motorcycle_int290" type="res_motorcycle_int2_motorcycle" depart="7560.90" departLane="best" departSpeed="max" from="E31" to="E30.558"/>
    <trip id="res_motorcycle_int291" type="res_motorcycle_int2_motorcycle" depart="7564.90" departLane="best" departSpeed="max" from="E31" to="E18.410"/>
    <trip id="res_motorcycle_int293" type="res_motorcycle_int2_motorcycle" depart="7572.90" departLane="best" departSpeed="max" from="E31" to="E18.410"/>
    <trip id="res_motorcycle_int294" type="res_motorcycle_int2_motorcycle" depart="7576.90" departLane="best" departSpeed="max" from="E18" to="E22.488"/>
    <trip id="res_motorcycle_int296" type="res_motorcycle_int2_motorcycle" depart="7584.89" departLane="best" departSpeed="max" from="E31" to="E31.622"/>
    <trip id="res_motorcycle_int297" type="res_motorcycle_int2_motorcycle" depart="7588.89" departLane="best" departSpeed="max" from="E31" to="E31.622"/>
    <trip id="res_motorcycle_int298" type="res_motorcycle_int2_motorcycle" depart="7592.89" departLane="best" departSpeed="max" from="E31" to="E18.410"/>
    <trip id="res_motorcycle_int299" type="res_motorcycle_int2_motorcycle" depart="7596.89" departLane="best" departSpeed="max" from="E31" to="E31.622"/>
    <trip id="res_motorcycle_int2100" type="res_motorcycle_int2_motorcycle" depart="7600.89" departLane="best" departSpeed="max" from="E31" to="E31.622"/>
    <trip id="res_motorcycle_int2101" type="res_motorcycle_int2_motorcycle" depart="7604.89" departLane="best" departSpeed="max" from="E31" to="E18.410"/>
    <trip id="res_motorcycle_int2102" type="res_motorcycle_int2_motorcycle" depart="7608.89" departLane="best" departSpeed="max" from="E31" to="E18.410"/>
    <trip id="res_motorcycle_int2103" type="res_motorcycle_int2_motorcycle" depart="7612.89" departLane="best" departSpeed="max" from="E31" to="E18.410"/>
    <trip id="res_motorcycle_int2104" type="res_motorcycle_int2_motorcycle" depart="7616.88" departLane="best" departSpeed="max" from="E31" to="E31.622"/>
    <trip id="res_motorcycle_int2105" type="res_motorcycle_int2_motorcycle" depart="7620.88" departLane="best" departSpeed="max" from="E31" to="E31.622"/>
    <trip id="res_motorcycle_int2107" type="res_motorcycle_int2_motorcycle" depart="7628.88" departLane="best" departSpeed="max" from="E31" to="E31.622"/>
    <trip id="res_motorcycle_int2108" type="res_motorcycle_int2_motorcycle" depart="7632.88" departLane="best" departSpeed="max" from="E31" to="E30.558"/>
    <trip id="res_motorcycle_int2109" type="res_motorcycle_int2_motorcycle" depart="7636.88" departLane="best" departSpeed="max" from="E18" to="E22.488"/>
    <trip id="res_motorcycle_int2110" type="res_motorcycle_int2_motorcycle" depart="7640.88" departLane="best" departSpeed="max" from="E31" to="E30.558"/>
    <trip id="res_motorcycle_int2111" type="res_motorcycle_int2_motorcycle" depart="7644.88" departLane="best" departSpeed="max" from="E31" to="E30.558"/>
    <trip id="res_motorcycle_int2113" type="res_motorcycle_int2_motorcycle" depart="7652.87" departLane="best" departSpeed="max" from="E31" to="E31.622"/>
    <trip id="res_motorcycle_int2114" type="res_motorcycle_int2_motorcycle" depart="7656.87" departLane="best" departSpeed="max" from="E18" to="E31.622"/>
    <trip id="res_motorcycle_int2115" type="res_motorcycle_int2_motorcycle" depart="7660.87" departLane="best" departSpeed="max" from="E18" to="E18.410"/>
    <trip id="res_motorcycle_int2116" type="res_motorcycle_int2_motorcycle" depart="7664.87" departLane="best" departSpeed="max" from="E31" to="E30.558"/>
    <trip id="res_motorcycle_int2117" type="res_motorcycle_int2_motorcycle" depart="7668.87" departLane="best" departSpeed="max" from="E31" to="E18.410"/>
    <trip id="res_motorcycle_int2118" type="res_motorcycle_int2_motorcycle" depart="7672.87" departLane="best" departSpeed="max" from="E31" to="E18.410"/>
    <trip id="res_motorcycle_int2119" type="res_motorcycle_int2_motorcycle" depart="7676.87" departLane="best" departSpeed="max" from="E31" to="E30.558"/>
    <trip id="res_motorcycle_int2120" type="res_motorcycle_int2_motorcycle" depart="7680.87" departLane="best" departSpeed="max" from="E31" to="E30.558"/>
    <trip id="res_motorcycle_int2121" type="res_motorcycle_int2_motorcycle" depart="7684.87" departLane="best" departSpeed="max" from="E31" to="E31.622"/>
    <trip id="res_motorcycle_int2125" type="res_motorcycle_int2_motorcycle" depart="7700.86" departLane="best" departSpeed="max" from="E31" to="E31.622"/>
    <trip id="res_motorcycle_int2126" type="res_motorcycle_int2_motorcycle" depart="7704.86" departLane="best" departSpeed="max" from="E18" to="E22.488"/>
    <trip id="res_motorcycle_int2127" type="res_motorcycle_int2_motorcycle" depart="7708.86" departLane="best" departSpeed="max" from="E31" to="E31.622"/>
    <trip id="res_motorcycle_int2128" type="res_motorcycle_int2_motorcycle" depart="7712.86" departLane="best" departSpeed="max" from="E18" to="E18.410"/>
    <trip id="res_motorcycle_int2129" type="res_motorcycle_int2_motorcycle" depart="7716.86" departLane="best" departSpeed="max" from="E31" to="E31.622"/>
    <trip id="res_motorcycle_int2130" type="res_motorcycle_int2_motorcycle" depart="7720.86" departLane="best" departSpeed="max" from="E31" to="E31.622"/>
    <trip id="res_motorcycle_int2131" type="res_motorcycle_int2_motorcycle" depart="7724.85" departLane="best" departSpeed="max" from="E31" to="E18.410"/>
    <trip id="res_motorcycle_int2132" type="res_motorcycle_int2_motorcycle" depart="7728.85" departLane="best" departSpeed="max" from="E31" to="E30.558"/>
    <trip id="res_motorcycle_int2133" type="res_motorcycle_int2_motorcycle" depart="7732.85" departLane="best" departSpeed="max" from="E31" to="E31.622"/>
    <trip id="res_motorcycle_int2134" type="res_motorcycle_int2_motorcycle" depart="7736.85" departLane="best" departSpeed="max" from="E31" to="E18.410"/>
    <trip id="res_motorcycle_int2136" type="res_motorcycle_int2_motorcycle" depart="7744.85" departLane="best" departSpeed="max" from="E31" to="E31.622"/>
    <trip id="res_motorcycle_int2137" type="res_motorcycle_int2_motorcycle" depart="7748.85" departLane="best" departSpeed="max" from="E18" to="E18.410"/>
    <trip id="res_motorcycle_int2139" type="res_motorcycle_int2_motorcycle" depart="7756.85" departLane="best" departSpeed="max" from="E31" to="E30.558"/>
    <trip id="res_motorcycle_int2140" type="res_motorcycle_int2_motorcycle" depart="7760.84" departLane="best" departSpeed="max" from="E31" to="E18.410"/>
    <trip id="res_motorcycle_int2142" type="res_motorcycle_int2_motorcycle" depart="7768.84" departLane="best" departSpeed="max" from="E31" to="E31.622"/>
    <trip id="res_motorcycle_int2143" type="res_motorcycle_int2_motorcycle" depart="7772.84" departLane="best" departSpeed="max" from="E31" to="E18.410"/>
    <trip id="res_motorcycle_int2145" type="res_motorcycle_int2_motorcycle" depart="7780.84" departLane="best" departSpeed="max" from="E18" to="E31.622"/>
    <trip id="res_motorcycle_int2147" type="res_motorcycle_int2_motorcycle" depart="7788.84" departLane="best" departSpeed="max" from="E31" to="E30.558"/>
    <trip id="res_motorcycle_int2148" type="res_motorcycle_int2_motorcycle" depart="7792.84" departLane="best" departSpeed="max" from="E31" to="E18.410"/>
    <trip id="res_motorcycle_int2149" type="res_motorcycle_int2_motorcycle" depart="7796.83" departLane="best" departSpeed="max" from="E18" to="E31.622"/>
    <trip id="res_motorcycle_int2150" type="res_motorcycle_int2_motorcycle" depart="7800.83" departLane="best" departSpeed="max" from="E31" to="E30.558"/>
    <trip id="res_motorcycle_int2151" type="res_motorcycle_int2_motorcycle" depart="7804.83" departLane="best" departSpeed="max" from="E31" to="E30.558"/>
    <trip id="res_motorcycle_int2152" type="res_motorcycle_int2_motorcycle" depart="7808.83" departLane="best" departSpeed="max" from="E18" to="E18.410"/>
    <trip id="res_motorcycle_int2153" type="res_motorcycle_int2_motorcycle" depart="7812.83" departLane="best" departSpeed="max" from="E31" to="E31.622"/>
    <trip id="res_motorcycle_int2154" type="res_motorcycle_int2_motorcycle" depart="7816.83" departLane="best" departSpeed="max" from="E31" to="E31.622"/>
    <trip id="res_motorcycle_int2155" type="res_motorcycle_int2_motorcycle" depart="7820.83" departLane="best" departSpeed="max" from="E31" to="E18.410"/>
    <trip id="res_motorcycle_int2156" type="res_motorcycle_int2_motorcycle" depart="7824.83" departLane="best" departSpeed="max" from="E31" to="E18.410"/>
    <trip id="res_motorcycle_int2157" type="res_motorcycle_int2_motorcycle" depart="7828.83" departLane="best" departSpeed="max" from="E31" to="E31.622"/>
    <trip id="res_motorcycle_int2158" type="res_motorcycle_int2_motorcycle" depart="7832.82" departLane="best" departSpeed="max" from="E31" to="E30.558"/>
    <trip id="res_motorcycle_int2159" type="res_motorcycle_int2_motorcycle" depart="7836.82" departLane="best" departSpeed="max" from="E18" to="E31.622"/>
    <trip id="res_motorcycle_int2160" type="res_motorcycle_int2_motorcycle" depart="7840.82" departLane="best" departSpeed="max" from="E31" to="E31.622"/>
    <trip id="res_motorcycle_int2161" type="res_motorcycle_int2_motorcycle" depart="7844.82" departLane="best" departSpeed="max" from="E31" to="E31.622"/>
    <trip id="res_motorcycle_int2163" type="res_motorcycle_int2_motorcycle" depart="7852.82" departLane="best" departSpeed="max" from="E31" to="E31.622"/>
    <trip id="res_motorcycle_int2164" type="res_motorcycle_int2_motorcycle" depart="7856.82" departLane="best" departSpeed="max" from="E31" to="E31.622"/>
    <trip id="res_motorcycle_int2166" type="res_motorcycle_int2_motorcycle" depart="7864.82" departLane="best" departSpeed="max" from="E31" to="E18.410"/>
    <trip id="res_motorcycle_int2167" type="res_motorcycle_int2_motorcycle" depart="7868.81" departLane="best" departSpeed="max" from="E31" to="E31.622"/>
    <trip id="res_motorcycle_int2168" type="res_motorcycle_int2_motorcycle" depart="7872.81" departLane="best" departSpeed="max" from="E31" to="E31.622"/>
    <trip id="res_motorcycle_int2170" type="res_motorcycle_int2_motorcycle" depart="7880.81" departLane="best" departSpeed="max" from="E31" to="E18.410"/>
    <trip id="res_motorcycle_int2171" type="res_motorcycle_int2_motorcycle" depart="7884.81" departLane="best" departSpeed="max" from="E18" to="E18.410"/>
    <trip id="res_motorcycle_int2172" type="res_motorcycle_int2_motorcycle" depart="7888.81" departLane="best" departSpeed="max" from="E31" to="E31.622"/>
    <trip id="res_motorcycle_int2175" type="res_motorcycle_int2_motorcycle" depart="7900.81" departLane="best" departSpeed="max" from="E31" to="E30.558"/>
    <trip id="res_motorcycle_int2176" type="res_motorcycle_int2_motorcycle" depart="7904.80" departLane="best" departSpeed="max" from="E31" to="E18.410"/>
    <trip id="res_motorcycle_int2177" type="res_motorcycle_int2_motorcycle" depart="7908.80" departLane="best" departSpeed="max" from="E31" to="E18.410"/>
    <trip id="res_motorcycle_int2179" type="res_motorcycle_int2_motorcycle" depart="7916.80" departLane="best" departSpeed="max" from="E18" to="E22.488"/>
    <trip id="res_motorcycle_int2181" type="res_motorcycle_int2_motorcycle" depart="7924.80" departLane="best" departSpeed="max" from="E31" to="E30.558"/>
    <trip id="res_motorcycle_int2182" type="res_motorcycle_int2_motorcycle" depart="7928.80" departLane="best" departSpeed="max" from="E31" to="E30.558"/>
    <trip id="res_motorcycle_int2183" type="res_motorcycle_int2_motorcycle" depart="7932.80" departLane="best" departSpeed="max" from="E31" to="E30.558"/>
    <trip id="res_motorcycle_int2184" type="res_motorcycle_int2_motorcycle" depart="7936.80" departLane="best" departSpeed="max" from="E18" to="E31.622"/>
    <trip id="res_motorcycle_int2185" type="res_motorcycle_int2_motorcycle" depart="7940.79" departLane="best" departSpeed="max" from="E31" to="E30.558"/>
    <trip id="res_motorcycle_int2186" type="res_motorcycle_int2_motorcycle" depart="7944.79" departLane="best" departSpeed="max" from="E31" to="E30.558"/>
    <trip id="res_motorcycle_int2187" type="res_motorcycle_int2_motorcycle" depart="7948.79" departLane="best" departSpeed="max" from="E31" to="E18.410"/>
    <trip id="res_motorcycle_int2189" type="res_motorcycle_int2_motorcycle" depart="7956.79" departLane="best" departSpeed="max" from="E31" to="E31.622"/>
    <trip id="res_motorcycle_int2193" type="res_motorcycle_int2_motorcycle" depart="7972.79" departLane="best" departSpeed="max" from="E18" to="E22.488"/>
    <trip id="res_motorcycle_int2194" type="res_motorcycle_int2_motorcycle" depart="7976.78" departLane="best" departSpeed="max" from="E31" to="E30.558"/>
    <trip id="res_motorcycle_int2195" type="res_motorcycle_int2_motorcycle" depart="7980.78" departLane="best" departSpeed="max" from="E31" to="E30.558"/>
    <trip id="res_motorcycle_int2196" type="res_motorcycle_int2_motorcycle" depart="7984.78" departLane="best" departSpeed="max" from="E31" to="E30.558"/>
    <trip id="res_motorcycle_int2197" type="res_motorcycle_int2_motorcycle" depart="7988.78" departLane="best" departSpeed="max" from="E18" to="E22.488"/>
    <trip id="res_motorcycle_int2198" type="res_motorcycle_int2_motorcycle" depart="7992.78" departLane="best" departSpeed="max" from="E31" to="E30.558"/>
    <trip id="res_motorcycle_int2200" type="res_motorcycle_int2_motorcycle" depart="8000.78" departLane="best" departSpeed="max" from="E31" to="E18.410"/>
    <trip id="res_motorcycle_int2201" type="res_motorcycle_int2_motorcycle" depart="8004.78" departLane="best" departSpeed="max" from="E31" to="E31.622"/>
    <trip id="res_motorcycle_int2202" type="res_motorcycle_int2_motorcycle" depart="8008.78" departLane="best" departSpeed="max" from="E31" to="E18.410"/>
    <trip id="res_motorcycle_int2205" type="res_motorcycle_int2_motorcycle" depart="8020.77" departLane="best" departSpeed="max" from="E31" to="E31.622"/>
    <trip id="res_motorcycle_int2206" type="res_motorcycle_int2_motorcycle" depart="8024.77" departLane="best" departSpeed="max" from="E31" to="E18.410"/>
    <trip id="res_motorcycle_int2207" type="res_motorcycle_int2_motorcycle" depart="8028.77" departLane="best" departSpeed="max" from="E18" to="E18.410"/>
    <trip id="res_motorcycle_int2209" type="res_motorcycle_int2_motorcycle" depart="8036.77" departLane="best" departSpeed="max" from="E31" to="E18.410"/>
    <trip id="res_motorcycle_int2210" type="res_motorcycle_int2_motorcycle" depart="8040.77" departLane="best" departSpeed="max" from="E31" to="E30.558"/>
    <trip id="res_motorcycle_int2212" type="res_motorcycle_int2_motorcycle" depart="8048.76" departLane="best" departSpeed="max" from="E31" to="E18.410"/>
    <trip id="res_motorcycle_int2213" type="res_motorcycle_int2_motorcycle" depart="8052.76" departLane="best" departSpeed="max" from="E31" to="E18.410"/>
    <trip id="res_motorcycle_int2214" type="res_motorcycle_int2_motorcycle" depart="8056.76" departLane="best" departSpeed="max" from="E31" to="E31.622"/>
    <trip id="res_motorcycle_int2215" type="res_motorcycle_int2_motorcycle" depart="8060.76" departLane="best" departSpeed="max" from="E18" to="E22.488"/>
    <trip id="res_motorcycle_int2216" type="res_motorcycle_int2_motorcycle" depart="8064.76" departLane="best" departSpeed="max" from="E18" to="E31.622"/>
    <trip id="res_motorcycle_int2217" type="res_motorcycle_int2_motorcycle" depart="8068.76" departLane="best" departSpeed="max" from="E31" to="E18.410"/>
    <trip id="res_motorcycle_int2218" type="res_motorcycle_int2_motorcycle" depart="8072.76" departLane="best" departSpeed="max" from="E31" to="E31.622"/>
    <trip id="res_motorcycle_int2219" type="res_motorcycle_int2_motorcycle" depart="8076.76" departLane="best" departSpeed="max" from="E31" to="E31.622"/>
    <trip id="res_motorcycle_int2220" type="res_motorcycle_int2_motorcycle" depart="8080.76" departLane="best" departSpeed="max" from="E31" to="E31.622"/>
    <trip id="res_motorcycle_int2221" type="res_motorcycle_int2_motorcycle" depart="8084.75" departLane="best" departSpeed="max" from="E31" to="E31.622"/>
    <trip id="res_motorcycle_int2222" type="res_motorcycle_int2_motorcycle" depart="8088.75" departLane="best" departSpeed="max" from="E31" to="E30.558"/>
    <trip id="res_motorcycle_int2223" type="res_motorcycle_int2_motorcycle" depart="8092.75" departLane="best" departSpeed="max" from="E31" to="E30.558"/>