<?xml version="1.0" encoding="UTF-8"?>

<!-- generated on 2025-08-16 00:37:56.947230 by randomTrips.py UNKNOWN
<configuration>
    <net-file value="osm.net.xml.gz"/>
    <weights-prefix value="random_edge_priority_interval_0"/>
    <output-trip-file value="osm.res_motorcycle.interval_0.trips.xml"/>
    <route-file value="osm.res_motorcycle.interval_0.rou.xml"/>
    <prefix value="res_motorcycle_int0"/>
    <trip-attributes value="departLane=&quot;best&quot;"/>
    <fringe-start-attributes value="departSpeed=&quot;max&quot;"/>
    <vehicle-class value="motorcycle"/>
    <vclass value="motorcycle"/>
    <remove-loops value="True"/>
    <validate value="True"/>
    <verbose value="True"/>
    <insertion-rate value="300.0"/>
</configuration>
-->

<routes xmlns:xsi="http://www.w3.org/2001/XMLSchema-instance" xsi:noNamespaceSchemaLocation="http://sumo.dlr.de/xsd/routes_file.xsd">
    <vType id="res_motorcycle_int0_motorcycle" vClass="motorcycle"/>
    <trip id="res_motorcycle_int00" depart="0.00" from="E22" to="E18.410" departLane="best" type="res_motorcycle_int0_motorcycle" departSpeed="max"/>
    <trip id="res_motorcycle_int01" depart="12.00" from="E18" to="E18.410" departLane="best" type="res_motorcycle_int0_motorcycle" departSpeed="max"/>
    <trip id="res_motorcycle_int02" depart="24.00" from="E22" to="E30.558" departLane="best" type="res_motorcycle_int0_motorcycle" departSpeed="max"/>
    <trip id="res_motorcycle_int03" depart="36.00" from="E22" to="E18.410" departLane="best" type="res_motorcycle_int0_motorcycle" departSpeed="max"/>
    <trip id="res_motorcycle_int04" depart="48.00" from="E22" to="E18.410" departLane="best" type="res_motorcycle_int0_motorcycle" departSpeed="max"/>
    <trip id="res_motorcycle_int05" depart="60.00" from="E18" to="E30.558" departLane="best" type="res_motorcycle_int0_motorcycle" departSpeed="max"/>
    <trip id="res_motorcycle_int06" depart="72.00" from="E18" to="E18.410" departLane="best" type="res_motorcycle_int0_motorcycle" departSpeed="max"/>
    <trip id="res_motorcycle_int07" depart="84.00" from="E22" to="E30.558" departLane="best" type="res_motorcycle_int0_motorcycle" departSpeed="max"/>
    <trip id="res_motorcycle_int08" depart="96.00" from="E18" to="E30.558" departLane="best" type="res_motorcycle_int0_motorcycle" departSpeed="max"/>
    <trip id="res_motorcycle_int09" depart="108.00" from="E22" to="E18.410" departLane="best" type="res_motorcycle_int0_motorcycle" departSpeed="max"/>
    <trip id="res_motorcycle_int010" depart="120.00" from="E22" to="E30.558" departLane="best" type="res_motorcycle_int0_motorcycle" departSpeed="max"/>
    <trip id="res_motorcycle_int011" depart="132.00" from="E22" to="E18.410" departLane="best" type="res_motorcycle_int0_motorcycle" departSpeed="max"/>
    <trip id="res_motorcycle_int012" depart="144.00" from="E22" to="E22.488" departLane="best" type="res_motorcycle_int0_motorcycle" departSpeed="max"/>
    <trip id="res_motorcycle_int013" depart="156.00" from="E18" to="E18.410" departLane="best" type="res_motorcycle_int0_motorcycle" departSpeed="max"/>
    <trip id="res_motorcycle_int014" depart="168.00" from="E22" to="E30.558" departLane="best" type="res_motorcycle_int0_motorcycle" departSpeed="max"/>
    <trip id="res_motorcycle_int015" depart="180.00" from="E22" to="E30.558" departLane="best" type="res_motorcycle_int0_motorcycle" departSpeed="max"/>
    <trip id="res_motorcycle_int016" depart="192.00" from="E22" to="E31.622" departLane="best" type="res_motorcycle_int0_motorcycle" departSpeed="max"/>
    <trip id="res_motorcycle_int017" depart="204.00" from="E22" to="E30.558" departLane="best" type="res_motorcycle_int0_motorcycle" departSpeed="max"/>
    <trip id="res_motorcycle_int018" depart="216.00" from="E22" to="E30.558" departLane="best" type="res_motorcycle_int0_motorcycle" departSpeed="max"/>
    <trip id="res_motorcycle_int019" depart="228.00" from="E22" to="E30.558" departLane="best" type="res_motorcycle_int0_motorcycle" departSpeed="max"/>
    <trip id="res_motorcycle_int020" depart="240.00" from="E22" to="E18.410" departLane="best" type="res_motorcycle_int0_motorcycle" departSpeed="max"/>
    <trip id="res_motorcycle_int021" depart="252.00" from="E18" to="E22.488" departLane="best" type="res_motorcycle_int0_motorcycle" departSpeed="max"/>
    <trip id="res_motorcycle_int022" depart="264.00" from="E18" to="E18.410" departLane="best" type="res_motorcycle_int0_motorcycle" departSpeed="max"/>
    <trip id="res_motorcycle_int023" depart="276.00" from="E18" to="E22.488" departLane="best" type="res_motorcycle_int0_motorcycle" departSpeed="max"/>
    <trip id="res_motorcycle_int024" depart="288.00" from="E22" to="E22.488" departLane="best" type="res_motorcycle_int0_motorcycle" departSpeed="max"/>
    <trip id="res_motorcycle_int025" depart="300.00" from="E22" to="E18.410" departLane="best" type="res_motorcycle_int0_motorcycle" departSpeed="max"/>
    <trip id="res_motorcycle_int026" depart="312.00" from="E18" to="E31.622" departLane="best" type="res_motorcycle_int0_motorcycle" departSpeed="max"/>
    <trip id="res_motorcycle_int027" depart="324.00" from="E22" to="E30.558" departLane="best" type="res_motorcycle_int0_motorcycle" departSpeed="max"/>
    <trip id="res_motorcycle_int028" depart="336.00" from="E18" to="E30.558" departLane="best" type="res_motorcycle_int0_motorcycle" departSpeed="max"/>
    <trip id="res_motorcycle_int029" depart="348.00" from="E18" to="E22.488" departLane="best" type="res_motorcycle_int0_motorcycle" departSpeed="max"/>
    <trip id="res_motorcycle_int030" depart="360.00" from="E22" to="E30.558" departLane="best" type="res_motorcycle_int0_motorcycle" departSpeed="max"/>
    <trip id="res_motorcycle_int031" depart="372.00" from="E22" to="E30.558" departLane="best" type="res_motorcycle_int0_motorcycle" departSpeed="max"/>
    <trip id="res_motorcycle_int032" depart="384.00" from="E22" to="E31.622" departLane="best" type="res_motorcycle_int0_motorcycle" departSpeed="max"/>
    <trip id="res_motorcycle_int033" depart="396.00" from="E18" to="E18.410" departLane="best" type="res_motorcycle_int0_motorcycle" departSpeed="max"/>
    <trip id="res_motorcycle_int034" depart="408.00" from="E22" to="E22.488" departLane="best" type="res_motorcycle_int0_motorcycle" departSpeed="max"/>
    <trip id="res_motorcycle_int035" depart="420.00" from="E18" to="E31.622" departLane="best" type="res_motorcycle_int0_motorcycle" departSpeed="max"/>
    <trip id="res_motorcycle_int036" depart="432.00" from="E22" to="E22.488" departLane="best" type="res_motorcycle_int0_motorcycle" departSpeed="max"/>
    <trip id="res_motorcycle_int037" depart="444.00" from="E22" to="E22.488" departLane="best" type="res_motorcycle_int0_motorcycle" departSpeed="max"/>
    <trip id="res_motorcycle_int038" depart="456.00" from="E22" to="E22.488" departLane="best" type="res_motorcycle_int0_motorcycle" departSpeed="max"/>
    <trip id="res_motorcycle_int039" depart="468.00" from="E18" to="E18.410" departLane="best" type="res_motorcycle_int0_motorcycle" departSpeed="max"/>
    <trip id="res_motorcycle_int040" depart="480.00" from="E22" to="E22.488" departLane="best" type="res_motorcycle_int0_motorcycle" departSpeed="max"/>
    <trip id="res_motorcycle_int041" depart="492.00" from="E22" to="E31.622" departLane="best" type="res_motorcycle_int0_motorcycle" departSpeed="max"/>
    <trip id="res_motorcycle_int042" depart="504.00" from="E22" to="E18.410" departLane="best" type="res_motorcycle_int0_motorcycle" departSpeed="max"/>
    <trip id="res_motorcycle_int043" depart="516.00" from="E22" to="E30.558" departLane="best" type="res_motorcycle_int0_motorcycle" departSpeed="max"/>
    <trip id="res_motorcycle_int044" depart="528.00" from="E18" to="E18.410" departLane="best" type="res_motorcycle_int0_motorcycle" departSpeed="max"/>
    <trip id="res_motorcycle_int045" depart="540.00" from="E18" to="E30.558" departLane="best" type="res_motorcycle_int0_motorcycle" departSpeed="max"/>
    <trip id="res_motorcycle_int046" depart="552.00" from="E22" to="E22.488" departLane="best" type="res_motorcycle_int0_motorcycle" departSpeed="max"/>
    <trip id="res_motorcycle_int047" depart="564.00" from="E18" to="E22.488" departLane="best" type="res_motorcycle_int0_motorcycle" departSpeed="max"/>
    <trip id="res_motorcycle_int048" depart="576.00" from="E22" to="E30.558" departLane="best" type="res_motorcycle_int0_motorcycle" departSpeed="max"/>
    <trip id="res_motorcycle_int049" depart="588.00" from="E22" to="E31.622" departLane="best" type="res_motorcycle_int0_motorcycle" departSpeed="max"/>
    <trip id="res_motorcycle_int050" depart="600.00" from="E18" to="E30.558" departLane="best" type="res_motorcycle_int0_motorcycle" departSpeed="max"/>
    <trip id="res_motorcycle_int051" depart="612.00" from="E22" to="E30.558" departLane="best" type="res_motorcycle_int0_motorcycle" departSpeed="max"/>
    <trip id="res_motorcycle_int052" depart="624.00" from="E18" to="E30.558" departLane="best" type="res_motorcycle_int0_motorcycle" departSpeed="max"/>
    <trip id="res_motorcycle_int053" depart="636.00" from="E18" to="E22.488" departLane="best" type="res_motorcycle_int0_motorcycle" departSpeed="max"/>
    <trip id="res_motorcycle_int054" depart="648.00" from="E22" to="E31.622" departLane="best" type="res_motorcycle_int0_motorcycle" departSpeed="max"/>
    <trip id="res_motorcycle_int055" depart="660.00" from="E22" to="E22.488" departLane="best" type="res_motorcycle_int0_motorcycle" departSpeed="max"/>
    <trip id="res_motorcycle_int056" depart="672.00" from="E22" to="E18.410" departLane="best" type="res_motorcycle_int0_motorcycle" departSpeed="max"/>
    <trip id="res_motorcycle_int057" depart="684.00" from="E22" to="E31.622" departLane="best" type="res_motorcycle_int0_motorcycle" departSpeed="max"/>
    <trip id="res_motorcycle_int058" depart="696.00" from="E18" to="E30.558" departLane="best" type="res_motorcycle_int0_motorcycle" departSpeed="max"/>
    <trip id="res_motorcycle_int059" depart="708.00" from="E22" to="E18.410" departLane="best" type="res_motorcycle_int0_motorcycle" departSpeed="max"/>
    <trip id="res_motorcycle_int060" depart="720.00" from="E22" to="E30.558" departLane="best" type="res_motorcycle_int0_motorcycle" departSpeed="max"/>
    <trip id="res_motorcycle_int061" depart="732.00" from="E22" to="E30.558" departLane="best" type="res_motorcycle_int0_motorcycle" departSpeed="max"/>
    <trip id="res_motorcycle_int062" depart="744.00" from="E18" to="E22.488" departLane="best" type="res_motorcycle_int0_motorcycle" departSpeed="max"/>
    <trip id="res_motorcycle_int063" depart="756.00" from="E18" to="E31.622" departLane="best" type="res_motorcycle_int0_motorcycle" departSpeed="max"/>
    <trip id="res_motorcycle_int064" depart="768.00" from="E22" to="E31.622" departLane="best" type="res_motorcycle_int0_motorcycle" departSpeed="max"/>
    <trip id="res_motorcycle_int065" depart="780.00" from="E22" to="E18.410" departLane="best" type="res_motorcycle_int0_motorcycle" departSpeed="max"/>
    <trip id="res_motorcycle_int066" depart="792.00" from="E22" to="E31.622" departLane="best" type="res_motorcycle_int0_motorcycle" departSpeed="max"/>
    <trip id="res_motorcycle_int067" depart="804.00" from="E18" to="E22.488" departLane="best" type="res_motorcycle_int0_motorcycle" departSpeed="max"/>
    <trip id="res_motorcycle_int068" depart="816.00" from="E18" to="E31.622" departLane="best" type="res_motorcycle_int0_motorcycle" departSpeed="max"/>
    <trip id="res_motorcycle_int069" depart="828.00" from="E22" to="E18.410" departLane="best" type="res_motorcycle_int0_motorcycle" departSpeed="max"/>
    <trip id="res_motorcycle_int070" depart="840.00" from="E22" to="E30.558" departLane="best" type="res_motorcycle_int0_motorcycle" departSpeed="max"/>
    <trip id="res_motorcycle_int071" depart="852.00" from="E18" to="E31.622" departLane="best" type="res_motorcycle_int0_motorcycle" departSpeed="max"/>
    <trip id="res_motorcycle_int072" depart="864.00" from="E22" to="E18.410" departLane="best" type="res_motorcycle_int0_motorcycle" departSpeed="max"/>
    <trip id="res_motorcycle_int073" depart="876.00" from="E22" to="E30.558" departLane="best" type="res_motorcycle_int0_motorcycle" departSpeed="max"/>
    <trip id="res_motorcycle_int074" depart="888.00" from="E18" to="E22.488" departLane="best" type="res_motorcycle_int0_motorcycle" departSpeed="max"/>
    <trip id="res_motorcycle_int075" depart="900.00" from="E22" to="E30.558" departLane="best" type="res_motorcycle_int0_motorcycle" departSpeed="max"/>
    <trip id="res_motorcycle_int076" depart="912.00" from="E22" to="E30.558" departLane="best" type="res_motorcycle_int0_motorcycle" departSpeed="max"/>
    <trip id="res_motorcycle_int077" depart="924.00" from="E18" to="E18.410" departLane="best" type="res_motorcycle_int0_motorcycle" departSpeed="max"/>
    <trip id="res_motorcycle_int078" depart="936.00" from="E22" to="E30.558" departLane="best" type="res_motorcycle_int0_motorcycle" departSpeed="max"/>
    <trip id="res_motorcycle_int079" depart="948.00" from="E18" to="E18.410" departLane="best" type="res_motorcycle_int0_motorcycle" departSpeed="max"/>
    <trip id="res_motorcycle_int080" depart="960.00" from="E18" to="E30.558" departLane="best" type="res_motorcycle_int0_motorcycle" departSpeed="max"/>
    <trip id="res_motorcycle_int081" depart="972.00" from="E18" to="E31.622" departLane="best" type="res_motorcycle_int0_motorcycle" departSpeed="max"/>
    <trip id="res_motorcycle_int082" depart="984.00" from="E22" to="E18.410" departLane="best" type="res_motorcycle_int0_motorcycle" departSpeed="max"/>
    <trip id="res_motorcycle_int083" depart="996.00" from="E18" to="E30.558" departLane="best" type="res_motorcycle_int0_motorcycle" departSpeed="max"/>
    <trip id="res_motorcycle_int084" depart="1008.00" from="E18" to="E18.410" departLane="best" type="res_motorcycle_int0_motorcycle" departSpeed="max"/>
    <trip id="res_motorcycle_int085" depart="1020.00" from="E22" to="E30.558" departLane="best" type="res_motorcycle_int0_motorcycle" departSpeed="max"/>
    <trip id="res_motorcycle_int086" depart="1032.00" from="E22" to="E31.622" departLane="best" type="res_motorcycle_int0_motorcycle" departSpeed="max"/>
    <trip id="res_motorcycle_int087" depart="1044.00" from="E22" to="E18.410" departLane="best" type="res_motorcycle_int0_motorcycle" departSpeed="max"/>
    <trip id="res_motorcycle_int088" depart="1056.00" from="E18" to="E22.488" departLane="best" type="res_motorcycle_int0_motorcycle" departSpeed="max"/>
    <trip id="res_motorcycle_int089" depart="1068.00" from="E22" to="E22.488" departLane="best" type="res_motorcycle_int0_motorcycle" departSpeed="max"/>
    <trip id="res_motorcycle_int090" depart="1080.00" from="E22" to="E30.558" departLane="best" type="res_motorcycle_int0_motorcycle" departSpeed="max"/>
    <trip id="res_motorcycle_int091" depart="1092.00" from="E22" to="E18.410" departLane="best" type="res_motorcycle_int0_motorcycle" departSpeed="max"/>
    <trip id="res_motorcycle_int092" depart="1104.00" from="E22" to="E22.488" departLane="best" type="res_motorcycle_int0_motorcycle" departSpeed="max"/>
    <trip id="res_motorcycle_int093" depart="1116.00" from="E22" to="E18.410" departLane="best" type="res_motorcycle_int0_motorcycle" departSpeed="max"/>
    <trip id="res_motorcycle_int094" depart="1128.00" from="E18" to="E22.488" departLane="best" type="res_motorcycle_int0_motorcycle" departSpeed="max"/>
    <trip id="res_motorcycle_int095" depart="1140.00" from="E22" to="E22.488" departLane="best" type="res_motorcycle_int0_motorcycle" departSpeed="max"/>
    <trip id="res_motorcycle_int096" depart="1152.00" from="E18" to="E31.622" departLane="best" type="res_motorcycle_int0_motorcycle" departSpeed="max"/>
    <trip id="res_motorcycle_int097" depart="1164.00" from="E22" to="E31.622" departLane="best" type="res_motorcycle_int0_motorcycle" departSpeed="max"/>
    <trip id="res_motorcycle_int098" depart="1176.00" from="E22" to="E18.410" departLane="best" type="res_motorcycle_int0_motorcycle" departSpeed="max"/>
    <trip id="res_motorcycle_int099" depart="1188.00" from="E22" to="E31.622" departLane="best" type="res_motorcycle_int0_motorcycle" departSpeed="max"/>
    <trip id="res_motorcycle_int0100" depart="1200.00" from="E22" to="E31.622" departLane="best" type="res_motorcycle_int0_motorcycle" departSpeed="max"/>
    <trip id="res_motorcycle_int0101" depart="1212.00" from="E22" to="E18.410" departLane="best" type="res_motorcycle_int0_motorcycle" departSpeed="max"/>
    <trip id="res_motorcycle_int0102" depart="1224.00" from="E22" to="E18.410" departLane="best" type="res_motorcycle_int0_motorcycle" departSpeed="max"/>
    <trip id="res_motorcycle_int0103" depart="1236.00" from="E22" to="E18.410" departLane="best" type="res_motorcycle_int0_motorcycle" departSpeed="max"/>
    <trip id="res_motorcycle_int0104" depart="1248.00" from="E22" to="E31.622" departLane="best" type="res_motorcycle_int0_motorcycle" departSpeed="max"/>
    <trip id="res_motorcycle_int0105" depart="1260.00" from="E18" to="E31.622" departLane="best" type="res_motorcycle_int0_motorcycle" departSpeed="max"/>
    <trip id="res_motorcycle_int0106" depart="1272.00" from="E22" to="E22.488" departLane="best" type="res_motorcycle_int0_motorcycle" departSpeed="max"/>
    <trip id="res_motorcycle_int0107" depart="1284.00" from="E22" to="E31.622" departLane="best" type="res_motorcycle_int0_motorcycle" departSpeed="max"/>
    <trip id="res_motorcycle_int0108" depart="1296.00" from="E22" to="E30.558" departLane="best" type="res_motorcycle_int0_motorcycle" departSpeed="max"/>
    <trip id="res_motorcycle_int0109" depart="1308.00" from="E18" to="E22.488" departLane="best" type="res_motorcycle_int0_motorcycle" departSpeed="max"/>
    <trip id="res_motorcycle_int0110" depart="1320.00" from="E22" to="E30.558" departLane="best" type="res_motorcycle_int0_motorcycle" departSpeed="max"/>
    <trip id="res_motorcycle_int0111" depart="1332.00" from="E22" to="E30.558" departLane="best" type="res_motorcycle_int0_motorcycle" departSpeed="max"/>
    <trip id="res_motorcycle_int0112" depart="1344.00" from="E18" to="E30.558" departLane="best" type="res_motorcycle_int0_motorcycle" departSpeed="max"/>
    <trip id="res_motorcycle_int0113" depart="1356.00" from="E22" to="E31.622" departLane="best" type="res_motorcycle_int0_motorcycle" departSpeed="max"/>
    <trip id="res_motorcycle_int0114" depart="1368.00" from="E18" to="E31.622" departLane="best" type="res_motorcycle_int0_motorcycle" departSpeed="max"/>
    <trip id="res_motorcycle_int0115" depart="1380.00" from="E18" to="E18.410" departLane="best" type="res_motorcycle_int0_motorcycle" departSpeed="max"/>
    <trip id="res_motorcycle_int0116" depart="1392.00" from="E22" to="E30.558" departLane="best" type="res_motorcycle_int0_motorcycle" departSpeed="max"/>
    <trip id="res_motorcycle_int0117" depart="1404.00" from="E18" to="E18.410" departLane="best" type="res_motorcycle_int0_motorcycle" departSpeed="max"/>
    <trip id="res_motorcycle_int0118" depart="1416.00" from="E22" to="E18.410" departLane="best" type="res_motorcycle_int0_motorcycle" departSpeed="max"/>
    <trip id="res_motorcycle_int0119" depart="1428.00" from="E22" to="E30.558" departLane="best" type="res_motorcycle_int0_motorcycle" departSpeed="max"/>
    <trip id="res_motorcycle_int0120" depart="1440.00" from="E22" to="E30.558" departLane="best" type="res_motorcycle_int0_motorcycle" departSpeed="max"/>
    <trip id="res_motorcycle_int0121" depart="1452.00" from="E22" to="E31.622" departLane="best" type="res_motorcycle_int0_motorcycle" departSpeed="max"/>
    <trip id="res_motorcycle_int0122" depart="1464.00" from="E18" to="E30.558" departLane="best" type="res_motorcycle_int0_motorcycle" departSpeed="max"/>
    <trip id="res_motorcycle_int0123" depart="1476.00" from="E18" to="E22.488" departLane="best" type="res_motorcycle_int0_motorcycle" departSpeed="max"/>
    <trip id="res_motorcycle_int0124" depart="1488.00" from="E22" to="E22.488" departLane="best" type="res_motorcycle_int0_motorcycle" departSpeed="max"/>
    <trip id="res_motorcycle_int0125" depart="1500.00" from="E22" to="E31.622" departLane="best" type="res_motorcycle_int0_motorcycle" departSpeed="max"/>
    <trip id="res_motorcycle_int0126" depart="1512.00" from="E18" to="E22.488" departLane="best" type="res_motorcycle_int0_motorcycle" departSpeed="max"/>
    <trip id="res_motorcycle_int0127" depart="1524.00" from="E22" to="E31.622" departLane="best" type="res_motorcycle_int0_motorcycle" departSpeed="max"/>
    <trip id="res_motorcycle_int0128" depart="1536.00" from="E18" to="E18.410" departLane="best" type="res_motorcycle_int0_motorcycle" departSpeed="max"/>
    <trip id="res_motorcycle_int0129" depart="1548.00" from="E18" to="E31.622" departLane="best" type="res_motorcycle_int0_motorcycle" departSpeed="max"/>
    <trip id="res_motorcycle_int0130" depart="1560.00" from="E22" to="E31.622" departLane="best" type="res_motorcycle_int0_motorcycle" departSpeed="max"/>
    <trip id="res_motorcycle_int0131" depart="1572.00" from="E22" to="E18.410" departLane="best" type="res_motorcycle_int0_motorcycle" departSpeed="max"/>
    <trip id="res_motorcycle_int0132" depart="1584.00" from="E22" to="E30.558" departLane="best" type="res_motorcycle_int0_motorcycle" departSpeed="max"/>
    <trip id="res_motorcycle_int0133" depart="1596.00" from="E22" to="E31.622" departLane="best" type="res_motorcycle_int0_motorcycle" departSpeed="max"/>
    <trip id="res_motorcycle_int0134" depart="1608.00" from="E22" to="E18.410" departLane="best" type="res_motorcycle_int0_motorcycle" departSpeed="max"/>
    <trip id="res_motorcycle_int0135" depart="1620.00" from="E22" to="E22.488" departLane="best" type="res_motorcycle_int0_motorcycle" departSpeed="max"/>
    <trip id="res_motorcycle_int0136" depart="1632.00" from="E22" to="E31.622" departLane="best" type="res_motorcycle_int0_motorcycle" departSpeed="max"/>
    <trip id="res_motorcycle_int0137" depart="1644.00" from="E18" to="E18.410" departLane="best" type="res_motorcycle_int0_motorcycle" departSpeed="max"/>
    <trip id="res_motorcycle_int0138" depart="1656.00" from="E18" to="E30.558" departLane="best" type="res_motorcycle_int0_motorcycle" departSpeed="max"/>
    <trip id="res_motorcycle_int0139" depart="1668.00" from="E18" to="E30.558" departLane="best" type="res_motorcycle_int0_motorcycle" departSpeed="max"/>
    <trip id="res_motorcycle_int0140" depart="1680.00" from="E22" to="E18.410" departLane="best" type="res_motorcycle_int0_motorcycle" departSpeed="max"/>
    <trip id="res_motorcycle_int0141" depart="1692.00" from="E22" to="E22.488" departLane="best" type="res_motorcycle_int0_motorcycle" departSpeed="max"/>
    <trip id="res_motorcycle_int0142" depart="1704.00" from="E22" to="E31.622" departLane="best" type="res_motorcycle_int0_motorcycle" departSpeed="max"/>
    <trip id="res_motorcycle_int0143" depart="1716.00" from="E22" to="E18.410" departLane="best" type="res_motorcycle_int0_motorcycle" departSpeed="max"/>
    <trip id="res_motorcycle_int0144" depart="1728.00" from="E22" to="E22.488" departLane="best" type="res_motorcycle_int0_motorcycle" departSpeed="max"/>
    <trip id="res_motorcycle_int0145" depart="1740.00" from="E18" to="E31.622" departLane="best" type="res_motorcycle_int0_motorcycle" departSpeed="max"/>
    <trip id="res_motorcycle_int0146" depart="1752.00" from="E22" to="E22.488" departLane="best" type="res_motorcycle_int0_motorcycle" departSpeed="max"/>
    <trip id="res_motorcycle_int0147" depart="1764.00" from="E22" to="E30.558" departLane="best" type="res_motorcycle_int0_motorcycle" departSpeed="max"/>
    <trip id="res_motorcycle_int0148" depart="1776.00" from="E22" to="E18.410" departLane="best" type="res_motorcycle_int0_motorcycle" departSpeed="max"/>
    <trip id="res_motorcycle_int0149" depart="1788.00" from="E18" to="E31.622" departLane="best" type="res_motorcycle_int0_motorcycle" departSpeed="max"/>
    <trip id="res_motorcycle_int0150" depart="1800.00" from="E22" to="E30.558" departLane="best" type="res_motorcycle_int0_motorcycle" departSpeed="max"/>
    <trip id="res_motorcycle_int0151" depart="1812.00" from="E22" to="E30.558" departLane="best" type="res_motorcycle_int0_motorcycle" departSpeed="max"/>
    <trip id="res_motorcycle_int0152" depart="1824.00" from="E18" to="E18.410" departLane="best" type="res_motorcycle_int0_motorcycle" departSpeed="max"/>
    <trip id="res_motorcycle_int0153" depart="1836.00" from="E22" to="E31.622" departLane="best" type="res_motorcycle_int0_motorcycle" departSpeed="max"/>
    <trip id="res_motorcycle_int0154" depart="1848.00" from="E22" to="E31.622" departLane="best" type="res_motorcycle_int0_motorcycle" departSpeed="max"/>
    <trip id="res_motorcycle_int0155" depart="1860.00" from="E22" to="E18.410" departLane="best" type="res_motorcycle_int0_motorcycle" departSpeed="max"/>
    <trip id="res_motorcycle_int0156" depart="1872.00" from="E18" to="E18.410" departLane="best" type="res_motorcycle_int0_motorcycle" departSpeed="max"/>
    <trip id="res_motorcycle_int0157" depart="1884.00" from="E22" to="E31.622" departLane="best" type="res_motorcycle_int0_motorcycle" departSpeed="max"/>
    <trip id="res_motorcycle_int0158" depart="1896.00" from="E22" to="E30.558" departLane="best" type="res_motorcycle_int0_motorcycle" departSpeed="max"/>
    <trip id="res_motorcycle_int0159" depart="1908.00" from="E18" to="E31.622" departLane="best" type="res_motorcycle_int0_motorcycle" departSpeed="max"/>
    <trip id="res_motorcycle_int0160" depart="1920.00" from="E22" to="E31.622" departLane="best" type="res_motorcycle_int0_motorcycle" departSpeed="max"/>
    <trip id="res_motorcycle_int0161" depart="1932.00" from="E22" to="E31.622" departLane="best" type="res_motorcycle_int0_motorcycle" departSpeed="max"/>
    <trip id="res_motorcycle_int0162" depart="1944.00" from="E18" to="E30.558" departLane="best" type="res_motorcycle_int0_motorcycle" departSpeed="max"/>
    <trip id="res_motorcycle_int0163" depart="1956.00" from="E22" to="E31.622" departLane="best" type="res_motorcycle_int0_motorcycle" departSpeed="max"/>
    <trip id="res_motorcycle_int0164" depart="1968.00" from="E22" to="E31.622" departLane="best" type="res_motorcycle_int0_motorcycle" departSpeed="max"/>
    <trip id="res_motorcycle_int0165" depart="1980.00" from="E22" to="E22.488" departLane="best" type="res_motorcycle_int0_motorcycle" departSpeed="max"/>
    <trip id="res_motorcycle_int0166" depart="1992.00" from="E22" to="E18.410" departLane="best" type="res_motorcycle_int0_motorcycle" departSpeed="max"/>
    <trip id="res_motorcycle_int0167" depart="2004.00" from="E22" to="E31.622" departLane="best" type="res_motorcycle_int0_motorcycle" departSpeed="max"/>
    <trip id="res_motorcycle_int0168" depart="2016.00" from="E18" to="E31.622" departLane="best" type="res_motorcycle_int0_motorcycle" departSpeed="max"/>
    <trip id="res_motorcycle_int0169" depart="2028.00" from="E22" to="E22.488" departLane="best" type="res_motorcycle_int0_motorcycle" departSpeed="max"/>
    <trip id="res_motorcycle_int0170" depart="2040.00" from="E22" to="E18.410" departLane="best" type="res_motorcycle_int0_motorcycle" departSpeed="max"/>
    <trip id="res_motorcycle_int0171" depart="2052.00" from="E18" to="E18.410" departLane="best" type="res_motorcycle_int0_motorcycle" departSpeed="max"/>
    <trip id="res_motorcycle_int0172" depart="2064.00" from="E22" to="E31.622" departLane="best" type="res_motorcycle_int0_motorcycle" departSpeed="max"/>
    <trip id="res_motorcycle_int0173" depart="2076.00" from="E22" to="E22.488" departLane="best" type="res_motorcycle_int0_motorcycle" departSpeed="max"/>
    <trip id="res_motorcycle_int0174" depart="2088.00" from="E22" to="E22.488" departLane="best" type="res_motorcycle_int0_motorcycle" departSpeed="max"/>
    <trip id="res_motorcycle_int0175" depart="2100.00" from="E22" to="E30.558" departLane="best" type="res_motorcycle_int0_motorcycle" departSpeed="max"/>
    <trip id="res_motorcycle_int0176" depart="2112.00" from="E22" to="E18.410" departLane="best" type="res_motorcycle_int0_motorcycle" departSpeed="max"/>
    <trip id="res_motorcycle_int0177" depart="2124.00" from="E22" to="E18.410" departLane="best" type="res_motorcycle_int0_motorcycle" departSpeed="max"/>
    <trip id="res_motorcycle_int0178" depart="2136.00" from="E22" to="E22.488" departLane="best" type="res_motorcycle_int0_motorcycle" departSpeed="max"/>
    <trip id="res_motorcycle_int0179" depart="2148.00" from="E18" to="E22.488" departLane="best" type="res_motorcycle_int0_motorcycle" departSpeed="max"/>
    <trip id="res_motorcycle_int0180" depart="2160.00" from="E22" to="E22.488" departLane="best" type="res_motorcycle_int0_motorcycle" departSpeed="max"/>
    <trip id="res_motorcycle_int0181" depart="2172.00" from="E22" to="E30.558" departLane="best" type="res_motorcycle_int0_motorcycle" departSpeed="max"/>
    <trip id="res_motorcycle_int0182" depart="2184.00" from="E22" to="E30.558" departLane="best" type="res_motorcycle_int0_motorcycle" departSpeed="max"/>
    <trip id="res_motorcycle_int0183" depart="2196.00" from="E18" to="E30.558" departLane="best" type="res_motorcycle_int0_motorcycle" departSpeed="max"/>
    <trip id="res_motorcycle_int0184" depart="2208.00" from="E18" to="E31.622" departLane="best" type="res_motorcycle_int0_motorcycle" departSpeed="max"/>
    <trip id="res_motorcycle_int0185" depart="2220.00" from="E22" to="E30.558" departLane="best" type="res_motorcycle_int0_motorcycle" departSpeed="max"/>
    <trip id="res_motorcycle_int0186" depart="2232.00" from="E22" to="E30.558" departLane="best" type="res_motorcycle_int0_motorcycle" departSpeed="max"/>
    <trip id="res_motorcycle_int0187" depart="2244.00" from="E22" to="E18.410" departLane="best" type="res_motorcycle_int0_motorcycle" departSpeed="max"/>