<routes>

<!-- generated on 2025-08-19 23:07:01.076420 by randomTrips.py UNKNOWN
<configuration>
    <net-file value="osm.net.xml.gz"/>
    <weights-prefix value="random_edge_priority_interval_0"/>
    <output-trip-file value="osm.res_bike.interval_0.trips.xml"/>
    <route-file value="osm.res_bike.interval_0.rou.xml"/>
    <prefix value="res_bike_int0"/>
    <trip-attributes value="departLane=&quot;best&quot;"/>
    <fringe-start-attributes value="departSpeed=&quot;max&quot;"/>
    <vehicle-class value="bicycle"/>
    <vclass value="bicycle"/>
    <remove-loops value="True"/>
    <validate value="True"/>
    <verbose value="True"/>
    <insertion-rate value="20.0"/>
</configuration>
-->

<!-- generated on 2025-08-19 23:07:01 by Eclipse SUMO duarouter Version 1.22.0
<duarouterConfiguration xmlns:xsi="http://www.w3.org/2001/XMLSchema-instance" xsi:noNamespaceSchemaLocation="http://sumo.dlr.de/xsd/duarouterConfiguration.xsd">

    <input>
        <net-file value="osm.net.xml.gz"/>
        <route-files value="osm.res_bike.interval_0.trips.xml"/>
    </input>

    <output>
        <output-file value="osm.res_bike.interval_0.trips.xml.tmp"/>
        <alternatives-output value="NUL"/>
        <write-trips value="true"/>
    </output>

    <processing>
        <remove-loops value="true"/>
    </processing>

    <time>
        <begin value="0.0"/>
        <end value="3600.0"/>
    </time>

    <report>
        <verbose value="true"/>
        <ignore-errors value="true"/>
        <no-step-log value="true"/>
    </report>

</duarouterConfiguration>
-->

    <vType id="res_bike_int0_bicycle" vClass="bicycle"/>
    <trip id="res_bike_int00" type="res_bike_int0_bicycle" depart="0.00" departLane="best" departSpeed="max" from="E22" to="E18.410"/>
    <trip id="res_bike_int01" type="res_bike_int0_bicycle" depart="180.00" departLane="best" departSpeed="max" from="E18" to="E18.410"/>
    <trip id="res_bike_int02" type="res_bike_int0_bicycle" depart="360.00" departLane="best" departSpeed="max" from="E22" to="E30.558"/>
    <trip id="res_bike_int03" type="res_bike_int0_bicycle" depart="540.00" departLane="best" departSpeed="max" from="E22" to="E18.410"/>
    <trip id="res_bike_int04" type="res_bike_int0_bicycle" depart="720.00" departLane="best" departSpeed="max" from="E22" to="E18.410"/>
    <trip id="res_bike_int06" type="res_bike_int0_bicycle" depart="1080.00" departLane="best" departSpeed="max" from="E18" to="E18.410"/>
    <trip id="res_bike_int07" type="res_bike_int0_bicycle" depart="1260.00" departLane="best" departSpeed="max" from="E22" to="E30.558"/>
    <trip id="res_bike_int09" type="res_bike_int0_bicycle" depart="1620.00" departLane="best" departSpeed="max" from="E22" to="E18.410"/>
    <trip id="res_bike_int010" type="res_bike_int0_bicycle" depart="1800.00" departLane="best" departSpeed="max" from="E22" to="E30.558"/>
    <trip id="res_bike_int011" type="res_bike_int0_bicycle" depart="1980.00" departLane="best" departSpeed="max" from="E22" to="E18.410"/>
    <trip id="res_bike_int012" type="res_bike_int0_bicycle" depart="2160.00" departLane="best" departSpeed="max" from="E22" to="E22.488"/>
    <trip id="res_bike_int013" type="res_bike_int0_bicycle" depart="2340.00" departLane="best" departSpeed="max" from="E18" to="E18.410"/>
    <trip id="res_bike_int014" type="res_bike_int0_bicycle" depart="2520.00" departLane="best" departSpeed="max" from="E22" to="E30.558"/>
    <trip id="res_bike_int015" type="res_bike_int0_bicycle" depart="2700.00" departLane="best" departSpeed="max" from="E22" to="E30.558"/>
    <trip id="res_bike_int017" type="res_bike_int0_bicycle" depart="3060.00" departLane="best" departSpeed="max" from="E22" to="E30.558"/>
    <trip id="res_bike_int018" type="res_bike_int0_bicycle" depart="3240.00" departLane="best" departSpeed="max" from="E22" to="E30.558"/>
    <trip id="res_bike_int019" type="res_bike_int0_bicycle" depart="3420.00" departLane="best" departSpeed="max" from="E22" to="E30.558"/>

<!-- generated on 2025-08-19 23:07:01.804498 by randomTrips.py UNKNOWN
<configuration>
    <net-file value="osm.net.xml.gz"/>
    <weights-prefix value="random_edge_priority_interval_1"/>
    <output-trip-file value="osm.res_bike.interval_1.trips.xml"/>
    <route-file value="osm.res_bike.interval_1.rou.xml"/>
    <prefix value="res_bike_int1"/>
    <trip-attributes value="departLane=&quot;best&quot;"/>
    <fringe-start-attributes value="departSpeed=&quot;max&quot;"/>
    <vehicle-class value="bicycle"/>
    <vclass value="bicycle"/>
    <remove-loops value="True"/>
    <validate value="True"/>
    <verbose value="True"/>
    <begin value="3601.0"/>
    <end value="7200.0"/>
    <insertion-rate value="40.01111419838844"/>
</configuration>
-->

<!-- generated on 2025-08-19 23:07:01 by Eclipse SUMO duarouter Version 1.22.0
<duarouterConfiguration xmlns:xsi="http://www.w3.org/2001/XMLSchema-instance" xsi:noNamespaceSchemaLocation="http://sumo.dlr.de/xsd/duarouterConfiguration.xsd">

    <input>
        <net-file value="osm.net.xml.gz"/>
        <route-files value="osm.res_bike.interval_1.trips.xml"/>
    </input>

    <output>
        <output-file value="osm.res_bike.interval_1.trips.xml.tmp"/>
        <alternatives-output value="NUL"/>
        <write-trips value="true"/>
    </output>

    <processing>
        <remove-loops value="true"/>
    </processing>

    <time>
        <begin value="3601.0"/>
        <end value="7200.0"/>
    </time>

    <report>
        <verbose value="true"/>
        <ignore-errors value="true"/>
        <no-step-log value="true"/>
    </report>

</duarouterConfiguration>
-->

    <vType id="res_bike_int1_bicycle" vClass="bicycle"/>
    <trip id="res_bike_int10" type="res_bike_int1_bicycle" depart="3601.00" departLane="best" departSpeed="max" from="E31" to="E18.410"/>
    <trip id="res_bike_int11" type="res_bike_int1_bicycle" depart="3690.97" departLane="best" departSpeed="max" from="E18" to="E18.410"/>
    <trip id="res_bike_int12" type="res_bike_int1_bicycle" depart="3780.95" departLane="best" departSpeed="max" from="E31" to="E30.558"/>
    <trip id="res_bike_int13" type="res_bike_int1_bicycle" depart="3870.92" departLane="best" departSpeed="max" from="E31" to="E18.410"/>
    <trip id="res_bike_int14" type="res_bike_int1_bicycle" depart="3960.90" departLane="best" departSpeed="max" from="E18" to="E18.410"/>
    <trip id="res_bike_int16" type="res_bike_int1_bicycle" depart="4140.85" departLane="best" departSpeed="max" from="E18" to="E18.410"/>
    <trip id="res_bike_int17" type="res_bike_int1_bicycle" depart="4230.82" departLane="best" departSpeed="max" from="E31" to="E30.558"/>
    <trip id="res_bike_int19" type="res_bike_int1_bicycle" depart="4410.78" departLane="best" departSpeed="max" from="E31" to="E18.410"/>
    <trip id="res_bike_int110" type="res_bike_int1_bicycle" depart="4500.75" departLane="best" departSpeed="max" from="E31" to="E30.558"/>
    <trip id="res_bike_int111" type="res_bike_int1_bicycle" depart="4590.73" departLane="best" departSpeed="max" from="E18" to="E18.410"/>
    <trip id="res_bike_int113" type="res_bike_int1_bicycle" depart="4770.68" departLane="best" departSpeed="max" from="E18" to="E18.410"/>
    <trip id="res_bike_int114" type="res_bike_int1_bicycle" depart="4860.65" departLane="best" departSpeed="max" from="E31" to="E30.558"/>
    <trip id="res_bike_int115" type="res_bike_int1_bicycle" depart="4950.63" departLane="best" departSpeed="max" from="E31" to="E30.558"/>
    <trip id="res_bike_int116" type="res_bike_int1_bicycle" depart="5040.60" departLane="best" departSpeed="max" from="E31" to="E31.622"/>
    <trip id="res_bike_int118" type="res_bike_int1_bicycle" depart="5220.55" departLane="best" departSpeed="max" from="E31" to="E30.558"/>
    <trip id="res_bike_int119" type="res_bike_int1_bicycle" depart="5310.53" departLane="best" departSpeed="max" from="E31" to="E30.558"/>
    <trip id="res_bike_int120" type="res_bike_int1_bicycle" depart="5400.50" departLane="best" departSpeed="max" from="E31" to="E18.410"/>
    <trip id="res_bike_int121" type="res_bike_int1_bicycle" depart="5490.48" departLane="best" departSpeed="max" from="E18" to="E22.488"/>
    <trip id="res_bike_int122" type="res_bike_int1_bicycle" depart="5580.45" departLane="best" departSpeed="max" from="E18" to="E18.410"/>
    <trip id="res_bike_int123" type="res_bike_int1_bicycle" depart="5670.43" departLane="best" departSpeed="max" from="E18" to="E22.488"/>
    <trip id="res_bike_int125" type="res_bike_int1_bicycle" depart="5850.38" departLane="best" departSpeed="max" from="E18" to="E18.410"/>
    <trip id="res_bike_int126" type="res_bike_int1_bicycle" depart="5940.35" departLane="best" departSpeed="max" from="E18" to="E31.622"/>
    <trip id="res_bike_int127" type="res_bike_int1_bicycle" depart="6030.33" departLane="best" departSpeed="max" from="E31" to="E30.558"/>
    <trip id="res_bike_int129" type="res_bike_int1_bicycle" depart="6210.28" departLane="best" departSpeed="max" from="E18" to="E22.488"/>
    <trip id="res_bike_int130" type="res_bike_int1_bicycle" depart="6300.25" departLane="best" departSpeed="max" from="E31" to="E30.558"/>
    <trip id="res_bike_int131" type="res_bike_int1_bicycle" depart="6390.23" departLane="best" departSpeed="max" from="E31" to="E30.558"/>
    <trip id="res_bike_int132" type="res_bike_int1_bicycle" depart="6480.20" departLane="best" departSpeed="max" from="E31" to="E31.622"/>
    <trip id="res_bike_int133" type="res_bike_int1_bicycle" depart="6570.18" departLane="best" departSpeed="max" from="E18" to="E18.410"/>
    <trip id="res_bike_int134" type="res_bike_int1_bicycle" depart="6660.15" departLane="best" departSpeed="max" from="E18" to="E22.488"/>
    <trip id="res_bike_int135" type="res_bike_int1_bicycle" depart="6750.13" departLane="best" departSpeed="max" from="E18" to="E31.622"/>
    <trip id="res_bike_int139" type="res_bike_int1_bicycle" depart="7110.03" departLane="best" departSpeed="max" from="E18" to="E18.410"/>

<!-- generated on 2025-08-19 23:07:02.519020 by randomTrips.py UNKNOWN
<configuration>
    <net-file value="osm.net.xml.gz"/>
    <weights-prefix value="random_edge_priority_interval_2"/>
    <output-trip-file value="osm.res_bike.interval_2.trips.xml"/>
    <route-file value="osm.res_bike.interval_2.rou.xml"/>
    <prefix value="res_bike_int2"/>
    <trip-attributes value="departLane=&quot;best&quot;"/>
    <fringe-start-attributes value="departSpeed=&quot;max&quot;"/>
    <vehicle-class value="bicycle"/>
    <vclass value="bicycle"/>
    <remove-loops value="True"/>
    <validate value="True"/>
    <verbose value="True"/>
    <begin value="7201.0"/>
    <end value="10800.0"/>
    <insertion-rate value="60.01667129758266"/>
</configuration>
-->

<!-- generated on 2025-08-19 23:07:02 by Eclipse SUMO duarouter Version 1.22.0
<duarouterConfiguration xmlns:xsi="http://www.w3.org/2001/XMLSchema-instance" xsi:noNamespaceSchemaLocation="http://sumo.dlr.de/xsd/duarouterConfiguration.xsd">

    <input>
        <net-file value="osm.net.xml.gz"/>
        <route-files value="osm.res_bike.interval_2.trips.xml"/>
    </input>

    <output>
        <output-file value="osm.res_bike.interval_2.trips.xml.tmp"/>
        <alternatives-output value="NUL"/>
        <write-trips value="true"/>
    </output>

    <processing>
        <remove-loops value="true"/>
    </processing>

    <time>
        <begin value="7201.0"/>
        <end value="10800.0"/>
    </time>

    <report>
        <verbose value="true"/>
        <ignore-errors value="true"/>
        <no-step-log value="true"/>
    </report>

</duarouterConfiguration>
-->

    <vType id="res_bike_int2_bicycle" vClass="bicycle"/>
    <trip id="res_bike_int20" type="res_bike_int2_bicycle" depart="7201.00" departLane="best" departSpeed="max" from="E31" to="E18.410"/>
    <trip id="res_bike_int21" type="res_bike_int2_bicycle" depart="7260.98" departLane="best" departSpeed="max" from="E31" to="E18.410"/>
    <trip id="res_bike_int22" type="res_bike_int2_bicycle" depart="7320.97" departLane="best" departSpeed="max" from="E31" to="E30.558"/>
    <trip id="res_bike_int23" type="res_bike_int2_bicycle" depart="7380.95" departLane="best" departSpeed="max" from="E31" to="E18.410"/>
    <trip id="res_bike_int24" type="res_bike_int2_bicycle" depart="7440.93" departLane="best" departSpeed="max" from="E31" to="E18.410"/>
    <trip id="res_bike_int25" type="res_bike_int2_bicycle" depart="7500.92" departLane="best" departSpeed="max" from="E31" to="E30.558"/>
    <trip id="res_bike_int26" type="res_bike_int2_bicycle" depart="7560.90" departLane="best" departSpeed="max" from="E18" to="E18.410"/>
    <trip id="res_bike_int27" type="res_bike_int2_bicycle" depart="7620.88" departLane="best" departSpeed="max" from="E31" to="E30.558"/>
    <trip id="res_bike_int28" type="res_bike_int2_bicycle" depart="7680.87" departLane="best" departSpeed="max" from="E31" to="E30.558"/>
    <trip id="res_bike_int29" type="res_bike_int2_bicycle" depart="7740.85" departLane="best" departSpeed="max" from="E31" to="E18.410"/>
    <trip id="res_bike_int210" type="res_bike_int2_bicycle" depart="7800.83" departLane="best" departSpeed="max" from="E31" to="E30.558"/>
    <trip id="res_bike_int211" type="res_bike_int2_bicycle" depart="7860.82" departLane="best" departSpeed="max" from="E31" to="E18.410"/>
    <trip id="res_bike_int213" type="res_bike_int2_bicycle" depart="7980.78" departLane="best" departSpeed="max" from="E18" to="E18.410"/>
    <trip id="res_bike_int214" type="res_bike_int2_bicycle" depart="8040.77" departLane="best" departSpeed="max" from="E31" to="E30.558"/>
    <trip id="res_bike_int215" type="res_bike_int2_bicycle" depart="8100.75" departLane="best" departSpeed="max" from="E31" to="E30.558"/>
    <trip id="res_bike_int216" type="res_bike_int2_bicycle" depart="8160.73" departLane="best" departSpeed="max" from="E31" to="E31.622"/>
    <trip id="res_bike_int217" type="res_bike_int2_bicycle" depart="8220.72" departLane="best" departSpeed="max" from="E31" to="E30.558"/>
    <trip id="res_bike_int218" type="res_bike_int2_bicycle" depart="8280.70" departLane="best" departSpeed="max" from="E31" to="E30.558"/>
    <trip id="res_bike_int219" type="res_bike_int2_bicycle" depart="8340.68" departLane="best" departSpeed="max" from="E31" to="E30.558"/>
    <trip id="res_bike_int220" type="res_bike_int2_bicycle" depart="8400.67" departLane="best" departSpeed="max" from="E31" to="E18.410"/>
    <trip id="res_bike_int222" type="res_bike_int2_bicycle" depart="8520.63" departLane="best" departSpeed="max" from="E18" to="E18.410"/>
    <trip id="res_bike_int223" type="res_bike_int2_bicycle" depart="8580.62" departLane="best" departSpeed="max" from="E18" to="E22.488"/>
    <trip id="res_bike_int225" type="res_bike_int2_bicycle" depart="8700.58" departLane="best" departSpeed="max" from="E31" to="E18.410"/>
    <trip id="res_bike_int226" type="res_bike_int2_bicycle" depart="8760.57" departLane="best" departSpeed="max" from="E31" to="E31.622"/>
    <trip id="res_bike_int227" type="res_bike_int2_bicycle" depart="8820.55" departLane="best" departSpeed="max" from="E31" to="E30.558"/>
    <trip id="res_bike_int229" type="res_bike_int2_bicycle" depart="8940.52" departLane="best" departSpeed="max" from="E18" to="E22.488"/>
    <trip id="res_bike_int230" type="res_bike_int2_bicycle" depart="9000.50" departLane="best" departSpeed="max" from="E31" to="E30.558"/>
    <trip id="res_bike_int231" type="res_bike_int2_bicycle" depart="9060.48" departLane="best" departSpeed="max" from="E31" to="E30.558"/>
    <trip id="res_bike_int232" type="res_bike_int2_bicycle" depart="9120.47" departLane="best" departSpeed="max" from="E31" to="E31.622"/>
    <trip id="res_bike_int233" type="res_bike_int2_bicycle" depart="9180.45" departLane="best" departSpeed="max" from="E31" to="E18.410"/>
    <trip id="res_bike_int235" type="res_bike_int2_bicycle" depart="9300.42" departLane="best" departSpeed="max" from="E18" to="E31.622"/>
    <trip id="res_bike_int239" type="res_bike_int2_bicycle" depart="9540.35" departLane="best" departSpeed="max" from="E31" to="E18.410"/>
    <trip id="res_bike_int241" type="res_bike_int2_bicycle" depart="9660.32" departLane="best" departSpeed="max" from="E31" to="E31.622"/>
    <trip id="res_bike_int242" type="res_bike_int2_bicycle" depart="9720.30" departLane="best" departSpeed="max" from="E31" to="E18.410"/>
    <trip id="res_bike_int243" type="res_bike_int2_bicycle" depart="9780.28" departLane="best" departSpeed="max" from="E31" to="E30.558"/>
    <trip id="res_bike_int244" type="res_bike_int2_bicycle" depart="9840.27" departLane="best" departSpeed="max" from="E18" to="E18.410"/>
    <trip id="res_bike_int247" type="res_bike_int2_bicycle" depart="10020.22" departLane="best" departSpeed="max" from="E18" to="E22.488"/>
    <trip id="res_bike_int248" type="res_bike_int2_bicycle" depart="10080.20" departLane="best" departSpeed="max" from="E31" to="E30.558"/>
    <trip id="res_bike_int249" type="res_bike_int2_bicycle" depart="10140.18" departLane="best" departSpeed="max" from="E31" to="E31.622"/>
    <trip id="res_bike_int251" type="res_bike_int2_bicycle" depart="10260.15" departLane="best" departSpeed="max" from="E31" to="E30.558"/>
    <trip id="res_bike_int252" type="res_bike_int2_bicycle" depart="10320.13" departLane="best" departSpeed="max" from="E31" to="E30.558"/>
    <trip id="res_bike_int253" type="res_bike_int2_bicycle" depart="10380.12" departLane="best" departSpeed="max" from="E18" to="E22.488"/>
    <trip id="res_bike_int254" type="res_bike_int2_bicycle" depart="10440.10" departLane="best" departSpeed="max" from="E31" to="E31.622"/>
    <trip id="res_bike_int256" type="res_bike_int2_bicycle" depart="10560.07" departLane="best" departSpeed="max" from="E31" to="E18.410"/>
    <trip id="res_bike_int257" type="res_bike_int2_bicycle" depart="10620.05" departLane="best" departSpeed="max" from="E31" to="E31.622"/>
    <trip id="res_bike_int258" type="res_bike_int2_bicycle" depart="10680.03" departLane="best" departSpeed="max" from="E31" to="E30.558"/>
    <trip id="res_bike_int259" type="res_bike_int2_bicycle" depart="10740.02" departLane="best" departSpeed="max" from="E31" to="E18.410"/>

<!-- generated on 2025-08-19 23:07:03.406376 by randomTrips.py UNKNOWN
<configuration>
    <net-file value="osm.net.xml.gz"/>
    <weights-prefix value="random_edge_priority_interval_3"/>
    <output-trip-file value="osm.res_bike.interval_3.trips.xml"/>
    <route-file value="osm.res_bike.interval_3.rou.xml"/>
    <prefix value="res_bike_int3"/>
    <trip-attributes value="departLane=&quot;best&quot;"/>
    <fringe-start-attributes value="departSpeed=&quot;max&quot;"/>
    <vehicle-class value="bicycle"/>
    <vclass value="bicycle"/>
    <remove-loops value="True"/>
    <validate value="True"/>
    <verbose value="True"/>
    <begin value="10801.0"/>
    <end value="14400.0"/>
    <insertion-rate value="80.02222839677688"/>
</configuration>
-->

<!-- generated on 2025-08-19 23:07:03 by Eclipse SUMO duarouter Version 1.22.0
<duarouterConfiguration xmlns:xsi="http://www.w3.org/2001/XMLSchema-instance" xsi:noNamespaceSchemaLocation="http://sumo.dlr.de/xsd/duarouterConfiguration.xsd">

    <input>
        <net-file value="osm.net.xml.gz"/>
        <route-files value="osm.res_bike.interval_3.trips.xml"/>
    </input>

    <output>
        <output-file value="osm.res_bike.interval_3.trips.xml.tmp"/>
        <alternatives-output value="NUL"/>
        <write-trips value="true"/>
    </output>

    <processing>
        <remove-loops value="true"/>
    </processing>

    <time>
        <begin value="10801.0"/>
        <end value="14400.0"/>
    </time>

    <report>
        <verbose value="true"/>
        <ignore-errors value="true"/>
        <no-step-log value="true"/>
    </report>

</duarouterConfiguration>
-->

    <vType id="res_bike_int3_bicycle" vClass="bicycle"/>
    <trip id="res_bike_int30" type="res_bike_int3_bicycle" depart="10801.00" departLane="best" departSpeed="max" from="E22" to="E18.410"/>
    <trip id="res_bike_int31" type="res_bike_int3_bicycle" depart="10845.99" departLane="best" departSpeed="max" from="E18" to="E18.410"/>
    <trip id="res_bike_int32" type="res_bike_int3_bicycle" depart="10890.97" departLane="best" departSpeed="max" from="E22" to="E30.558"/>
    <trip id="res_bike_int33" type="res_bike_int3_bicycle" depart="10935.96" departLane="best" departSpeed="max" from="E22" to="E18.410"/>
    <trip id="res_bike_int34" type="res_bike_int3_bicycle" depart="10980.95" departLane="best" departSpeed="max" from="E18" to="E18.410"/>
    <trip id="res_bike_int36" type="res_bike_int3_bicycle" depart="11070.92" departLane="best" departSpeed="max" from="E18" to="E18.410"/>
    <trip id="res_bike_int37" type="res_bike_int3_bicycle" depart="11115.91" departLane="best" departSpeed="max" from="E22" to="E30.558"/>
    <trip id="res_bike_int39" type="res_bike_int3_bicycle" depart="11205.89" departLane="best" departSpeed="max" from="E22" to="E18.410"/>
    <trip id="res_bike_int310" type="res_bike_int3_bicycle" depart="11250.87" departLane="best" departSpeed="max" from="E22" to="E30.558"/>
    <trip id="res_bike_int311" type="res_bike_int3_bicycle" depart="11295.86" departLane="best" departSpeed="max" from="E18" to="E18.410"/>
    <trip id="res_bike_int312" type="res_bike_int3_bicycle" depart="11340.85" departLane="best" departSpeed="max" from="E22" to="E22.488"/>
    <trip id="res_bike_int313" type="res_bike_int3_bicycle" depart="11385.84" departLane="best" departSpeed="max" from="E18" to="E18.410"/>
    <trip id="res_bike_int314" type="res_bike_int3_bicycle" depart="11430.82" departLane="best" departSpeed="max" from="E22" to="E30.558"/>
    <trip id="res_bike_int315" type="res_bike_int3_bicycle" depart="11475.81" departLane="best" departSpeed="max" from="E22" to="E30.558"/>
    <trip id="res_bike_int316" type="res_bike_int3_bicycle" depart="11520.80" departLane="best" departSpeed="max" from="E18" to="E31.622"/>
    <trip id="res_bike_int318" type="res_bike_int3_bicycle" depart="11610.77" departLane="best" departSpeed="max" from="E22" to="E30.558"/>
    <trip id="res_bike_int319" type="res_bike_int3_bicycle" depart="11655.76" departLane="best" departSpeed="max" from="E22" to="E30.558"/>
    <trip id="res_bike_int320" type="res_bike_int3_bicycle" depart="11700.75" departLane="best" departSpeed="max" from="E22" to="E18.410"/>
    <trip id="res_bike_int321" type="res_bike_int3_bicycle" depart="11745.74" departLane="best" departSpeed="max" from="E18" to="E22.488"/>
    <trip id="res_bike_int322" type="res_bike_int3_bicycle" depart="11790.72" departLane="best" departSpeed="max" from="E18" to="E18.410"/>
    <trip id="res_bike_int323" type="res_bike_int3_bicycle" depart="11835.71" departLane="best" departSpeed="max" from="E18" to="E22.488"/>
    <trip id="res_bike_int324" type="res_bike_int3_bicycle" depart="11880.70" departLane="best" departSpeed="max" from="E22" to="E22.488"/>
    <trip id="res_bike_int325" type="res_bike_int3_bicycle" depart="11925.69" departLane="best" departSpeed="max" from="E18" to="E18.410"/>
    <trip id="res_bike_int326" type="res_bike_int3_bicycle" depart="11970.67" departLane="best" departSpeed="max" from="E18" to="E31.622"/>
    <trip id="res_bike_int327" type="res_bike_int3_bicycle" depart="12015.66" departLane="best" departSpeed="max" from="E22" to="E30.558"/>
    <trip id="res_bike_int329" type="res_bike_int3_bicycle" depart="12105.64" departLane="best" departSpeed="max" from="E18" to="E22.488"/>
    <trip id="res_bike_int330" type="res_bike_int3_bicycle" depart="12150.62" departLane="best" departSpeed="max" from="E22" to="E30.558"/>
    <trip id="res_bike_int333" type="res_bike_int3_bicycle" depart="12285.59" departLane="best" departSpeed="max" from="E18" to="E18.410"/>
    <trip id="res_bike_int334" type="res_bike_int3_bicycle" depart="12330.57" departLane="best" departSpeed="max" from="E18" to="E22.488"/>
    <trip id="res_bike_int335" type="res_bike_int3_bicycle" depart="12375.56" departLane="best" departSpeed="max" from="E18" to="E31.622"/>
    <trip id="res_bike_int336" type="res_bike_int3_bicycle" depart="12420.55" departLane="best" departSpeed="max" from="E22" to="E22.488"/>
    <trip id="res_bike_int337" type="res_bike_int3_bicycle" depart="12465.54" departLane="best" departSpeed="max" from="E22" to="E22.488"/>
    <trip id="res_bike_int338" type="res_bike_int3_bicycle" depart="12510.52" departLane="best" departSpeed="max" from="E22" to="E22.488"/>
    <trip id="res_bike_int339" type="res_bike_int3_bicycle" depart="12555.51" departLane="best" departSpeed="max" from="E18" to="E18.410"/>
    <trip id="res_bike_int340" type="res_bike_int3_bicycle" depart="12600.50" departLane="best" departSpeed="max" from="E18" to="E22.488"/>
    <trip id="res_bike_int341" type="res_bike_int3_bicycle" depart="12645.49" departLane="best" departSpeed="max" from="E18" to="E31.622"/>
    <trip id="res_bike_int342" type="res_bike_int3_bicycle" depart="12690.47" departLane="best" departSpeed="max" from="E18" to="E18.410"/>
    <trip id="res_bike_int343" type="res_bike_int3_bicycle" depart="12735.46" departLane="best" departSpeed="max" from="E22" to="E30.558"/>
    <trip id="res_bike_int344" type="res_bike_int3_bicycle" depart="12780.45" departLane="best" departSpeed="max" from="E18" to="E18.410"/>
    <trip id="res_bike_int346" type="res_bike_int3_bicycle" depart="12870.42" departLane="best" departSpeed="max" from="E22" to="E22.488"/>
    <trip id="res_bike_int347" type="res_bike_int3_bicycle" depart="12915.41" departLane="best" departSpeed="max" from="E18" to="E22.488"/>
    <trip id="res_bike_int348" type="res_bike_int3_bicycle" depart="12960.40" departLane="best" departSpeed="max" from="E22" to="E30.558"/>
    <trip id="res_bike_int351" type="res_bike_int3_bicycle" depart="13095.36" departLane="best" departSpeed="max" from="E22" to="E30.558"/>
    <trip id="res_bike_int353" type="res_bike_int3_bicycle" depart="13185.34" departLane="best" departSpeed="max" from="E18" to="E22.488"/>
    <trip id="res_bike_int354" type="res_bike_int3_bicycle" depart="13230.32" departLane="best" departSpeed="max" from="E18" to="E31.622"/>
    <trip id="res_bike_int355" type="res_bike_int3_bicycle" depart="13275.31" departLane="best" departSpeed="max" from="E22" to="E22.488"/>
    <trip id="res_bike_int356" type="res_bike_int3_bicycle" depart="13320.30" departLane="best" departSpeed="max" from="E18" to="E18.410"/>
    <trip id="res_bike_int359" type="res_bike_int3_bicycle" depart="13455.26" departLane="best" departSpeed="max" from="E22" to="E18.410"/>
    <trip id="res_bike_int360" type="res_bike_int3_bicycle" depart="13500.25" departLane="best" departSpeed="max" from="E22" to="E30.558"/>
    <trip id="res_bike_int361" type="res_bike_int3_bicycle" depart="13545.24" departLane="best" departSpeed="max" from="E22" to="E30.558"/>
    <trip id="res_bike_int362" type="res_bike_int3_bicycle" depart="13590.22" departLane="best" departSpeed="max" from="E18" to="E22.488"/>
    <trip id="res_bike_int363" type="res_bike_int3_bicycle" depart="13635.21" departLane="best" departSpeed="max" from="E18" to="E31.622"/>
    <trip id="res_bike_int365" type="res_bike_int3_bicycle" depart="13725.19" departLane="best" departSpeed="max" from="E18" to="E18.410"/>
    <trip id="res_bike_int367" type="res_bike_int3_bicycle" depart="13815.16" departLane="best" departSpeed="max" from="E18" to="E22.488"/>
    <trip id="res_bike_int368" type="res_bike_int3_bicycle" depart="13860.15" departLane="best" departSpeed="max" from="E18" to="E31.622"/>
    <trip id="res_bike_int369" type="res_bike_int3_bicycle" depart="13905.14" departLane="best" departSpeed="max" from="E22" to="E18.410"/>
    <trip id="res_bike_int371" type="res_bike_int3_bicycle" depart="13995.11" departLane="best" departSpeed="max" from="E18" to="E31.622"/>
    <trip id="res_bike_int372" type="res_bike_int3_bicycle" depart="14040.10" departLane="best" departSpeed="max" from="E18" to="E18.410"/>
    <trip id="res_bike_int374" type="res_bike_int3_bicycle" depart="14130.07" departLane="best" departSpeed="max" from="E18" to="E22.488"/>
    <trip id="res_bike_int375" type="res_bike_int3_bicycle" depart="14175.06" departLane="best" departSpeed="max" from="E22" to="E30.558"/>
    <trip id="res_bike_int377" type="res_bike_int3_bicycle" depart="14265.04" departLane="best" departSpeed="max" from="E18" to="E18.410"/>
    <trip id="res_bike_int379" type="res_bike_int3_bicycle" depart="14355.01" departLane="best" departSpeed="max" from="E18" to="E18.410"/>

<!-- generated on 2025-08-19 23:07:04.136329 by randomTrips.py UNKNOWN
<configuration>
    <net-file value="osm.net.xml.gz"/>
    <weights-prefix value="random_edge_priority_interval_4"/>
    <output-trip-file value="osm.res_bike.interval_4.trips.xml"/>
    <route-file value="osm.res_bike.interval_4.rou.xml"/>
    <prefix value="res_bike_int4"/>
    <trip-attributes value="departLane=&quot;best&quot;"/>
    <fringe-start-attributes value="departSpeed=&quot;max&quot;"/>
    <vehicle-class value="bicycle"/>
    <vclass value="bicycle"/>
    <remove-loops value="True"/>
    <validate value="True"/>
    <verbose value="True"/>
    <begin value="14401.0"/>
    <end value="18000.0"/>
    <insertion-rate value="100.0277854959711"/>
</configuration>
-->

<!-- generated on 2025-08-19 23:07:04 by Eclipse SUMO duarouter Version 1.22.0
<duarouterConfiguration xmlns:xsi="http://www.w3.org/2001/XMLSchema-instance" xsi:noNamespaceSchemaLocation="http://sumo.dlr.de/xsd/duarouterConfiguration.xsd">

    <input>
        <net-file value="osm.net.xml.gz"/>
        <route-files value="osm.res_bike.interval_4.trips.xml"/>
    </input>

    <output>
        <output-file value="osm.res_bike.interval_4.trips.xml.tmp"/>
        <alternatives-output value="NUL"/>
        <write-trips value="true"/>
    </output>

    <processing>
        <remove-loops value="true"/>
    </processing>

    <time>
        <begin value="14401.0"/>