<?xml version="1.0" encoding="UTF-8"?>

<!-- generated on 2025-08-15 22:04:36 by Eclipse SUMO duarouter Version 1.24.0
<duarouterConfiguration xmlns:xsi="http://www.w3.org/2001/XMLSchema-instance" xsi:noNamespaceSchemaLocation="http://sumo.dlr.de/xsd/duarouterConfiguration.xsd">

    <input>
        <net-file value="osm.net.xml.gz"/>
        <route-files value="osm.res_veh.trips.xml"/>
    </input>

    <output>
        <output-file value="osm.res_veh.rou.xml"/>
    </output>

    <report>
        <ignore-errors value="true"/>
    </report>

</duarouterConfiguration>
-->

<routes xmlns:xsi="http://www.w3.org/2001/XMLSchema-instance" xsi:noNamespaceSchemaLocation="http://sumo.dlr.de/xsd/routes_file.xsd">
    <vType id="res_veh_int0_passenger" vClass="passenger"/>
    <vehicle id="res_veh_int00" type="res_veh_int0_passenger" depart="0.00" departLane="best" departSpeed="max">
        <route edges="E22 E18.410"/>
    </vehicle>
    <vehicle id="res_veh_int01" type="res_veh_int0_passenger" depart="180.00" departLane="best" departSpeed="max">
        <route edges="E18 E18.410"/>
    </vehicle>
    <vehicle id="res_veh_int02" type="res_veh_int0_passenger" depart="360.00" departLane="best" departSpeed="max">
        <route edges="E22 E30.558"/>
    </vehicle>
    <vehicle id="res_veh_int03" type="res_veh_int0_passenger" depart="540.00" departLane="best" departSpeed="max">
        <route edges="E22 E18.410"/>
    </vehicle>
    <vehicle id="res_veh_int04" type="res_veh_int0_passenger" depart="720.00" departLane="best" departSpeed="max">
        <route edges="E22 E18.410"/>
    </vehicle>
    <vehicle id="res_veh_int06" type="res_veh_int0_passenger" depart="1080.00" departLane="best" departSpeed="max">
        <route edges="E18 E18.410"/>
    </vehicle>
    <vehicle id="res_veh_int07" type="res_veh_int0_passenger" depart="1260.00" departLane="best" departSpeed="max">
        <route edges="E22 E30.558"/>
    </vehicle>
    <vehicle id="res_veh_int09" type="res_veh_int0_passenger" depart="1620.00" departLane="best" departSpeed="max">
        <route edges="E22 E18.410"/>
    </vehicle>
    <vehicle id="res_veh_int010" type="res_veh_int0_passenger" depart="1800.00" departLane="best" departSpeed="max">
        <route edges="E22 E30.558"/>
    </vehicle>
    <vehicle id="res_veh_int011" type="res_veh_int0_passenger" depart="1980.00" departLane="best" departSpeed="max">
        <route edges="E22 E18.410"/>
    </vehicle>
    <vehicle id="res_veh_int012" type="res_veh_int0_passenger" depart="2160.00" departLane="best" departSpeed="max">
        <route edges="E22 E22.488"/>
    </vehicle>
    <vehicle id="res_veh_int013" type="res_veh_int0_passenger" depart="2340.00" departLane="best" departSpeed="max">
        <route edges="E18 E18.410"/>
    </vehicle>
    <vehicle id="res_veh_int014" type="res_veh_int0_passenger" depart="2520.00" departLane="best" departSpeed="max">
        <route edges="E22 E30.558"/>
    </vehicle>
    <vehicle id="res_veh_int015" type="res_veh_int0_passenger" depart="2700.00" departLane="best" departSpeed="max">
        <route edges="E22 E30.558"/>
    </vehicle>
    <vehicle id="res_veh_int017" type="res_veh_int0_passenger" depart="3060.00" departLane="best" departSpeed="max">
        <route edges="E22 E30.558"/>
    </vehicle>
    <vehicle id="res_veh_int018" type="res_veh_int0_passenger" depart="3240.00" departLane="best" departSpeed="max">
        <route edges="E22 E30.558"/>
    </vehicle>
    <vehicle id="res_veh_int019" type="res_veh_int0_passenger" depart="3420.00" departLane="best" departSpeed="max">
        <route edges="E22 E30.558"/>
    </vehicle>
    <vType id="res_veh_int1_passenger" vClass="passenger"/>
    <vehicle id="res_veh_int10" type="res_veh_int1_passenger" depart="3601.00" departLane="best" departSpeed="max">
        <route edges="E31 E18.410"/>
    </vehicle>
    <vehicle id="res_veh_int11" type="res_veh_int1_passenger" depart="3690.97" departLane="best" departSpeed="max">
        <route edges="E18 E18.410"/>
    </vehicle>
    <vehicle id="res_veh_int12" type="res_veh_int1_passenger" depart="3780.95" departLane="best" departSpeed="max">
        <route edges="E31 E30.558"/>
    </vehicle>
    <vehicle id="res_veh_int13" type="res_veh_int1_passenger" depart="3870.92" departLane="best" departSpeed="max">
        <route edges="E31 E18.410"/>
    </vehicle>
    <vehicle id="res_veh_int14" type="res_veh_int1_passenger" depart="3960.90" departLane="best" departSpeed="max">
        <route edges="E18 E18.410"/>
    </vehicle>
    <vehicle id="res_veh_int16" type="res_veh_int1_passenger" depart="4140.85" departLane="best" departSpeed="max">
        <route edges="E18 E18.410"/>
    </vehicle>
    <vehicle id="res_veh_int17" type="res_veh_int1_passenger" depart="4230.82" departLane="best" departSpeed="max">
        <route edges="E31 E30.558"/>
    </vehicle>
    <vehicle id="res_veh_int19" type="res_veh_int1_passenger" depart="4410.78" departLane="best" departSpeed="max">
        <route edges="E31 E18.410"/>
    </vehicle>
    <vehicle id="res_veh_int110" type="res_veh_int1_passenger" depart="4500.75" departLane="best" departSpeed="max">
        <route edges="E31 E30.558"/>
    </vehicle>
    <vehicle id="res_veh_int111" type="res_veh_int1_passenger" depart="4590.73" departLane="best" departSpeed="max">
        <route edges="E18 E18.410"/>
    </vehicle>
    <vehicle id="res_veh_int113" type="res_veh_int1_passenger" depart="4770.68" departLane="best" departSpeed="max">
        <route edges="E18 E18.410"/>
    </vehicle>
    <vehicle id="res_veh_int114" type="res_veh_int1_passenger" depart="4860.65" departLane="best" departSpeed="max">
        <route edges="E31 E30.558"/>
    </vehicle>
    <vehicle id="res_veh_int115" type="res_veh_int1_passenger" depart="4950.63" departLane="best" departSpeed="max">
        <route edges="E31 E30.558"/>
    </vehicle>
    <vehicle id="res_veh_int116" type="res_veh_int1_passenger" depart="5040.60" departLane="best" departSpeed="max">
        <route edges="E31 E31.622"/>
    </vehicle>
    <vehicle id="res_veh_int118" type="res_veh_int1_passenger" depart="5220.55" departLane="best" departSpeed="max">
        <route edges="E31 E30.558"/>
    </vehicle>
    <vehicle id="res_veh_int119" type="res_veh_int1_passenger" depart="5310.53" departLane="best" departSpeed="max">
        <route edges="E31 E30.558"/>
    </vehicle>
    <vehicle id="res_veh_int120" type="res_veh_int1_passenger" depart="5400.50" departLane="best" departSpeed="max">
        <route edges="E31 E18.410"/>
    </vehicle>
    <vehicle id="res_veh_int121" type="res_veh_int1_passenger" depart="5490.48" departLane="best" departSpeed="max">
        <route edges="E18 E22.488"/>
    </vehicle>
    <vehicle id="res_veh_int122" type="res_veh_int1_passenger" depart="5580.45" departLane="best" departSpeed="max">
        <route edges="E18 E18.410"/>
    </vehicle>
    <vehicle id="res_veh_int123" type="res_veh_int1_passenger" depart="5670.43" departLane="best" departSpeed="max">
        <route edges="E18 E22.488"/>
    </vehicle>
    <vehicle id="res_veh_int125" type="res_veh_int1_passenger" depart="5850.38" departLane="best" departSpeed="max">
        <route edges="E18 E18.410"/>
    </vehicle>
    <vehicle id="res_veh_int126" type="res_veh_int1_passenger" depart="5940.35" departLane="best" departSpeed="max">
        <route edges="E18 E31.622"/>
    </vehicle>
    <vehicle id="res_veh_int127" type="res_veh_int1_passenger" depart="6030.33" departLane="best" departSpeed="max">
        <route edges="E31 E30.558"/>
    </vehicle>
    <vehicle id="res_veh_int129" type="res_veh_int1_passenger" depart="6210.28" departLane="best" departSpeed="max">
        <route edges="E18 E22.488"/>
    </vehicle>
    <vehicle id="res_veh_int130" type="res_veh_int1_passenger" depart="6300.25" departLane="best" departSpeed="max">
        <route edges="E31 E30.558"/>
    </vehicle>
    <vehicle id="res_veh_int131" type="res_veh_int1_passenger" depart="6390.23" departLane="best" departSpeed="max">
        <route edges="E31 E30.558"/>
    </vehicle>
    <vehicle id="res_veh_int132" type="res_veh_int1_passenger" depart="6480.20" departLane="best" departSpeed="max">
        <route edges="E31 E31.622"/>
    </vehicle>
    <vehicle id="res_veh_int133" type="res_veh_int1_passenger" depart="6570.18" departLane="best" departSpeed="max">
        <route edges="E18 E18.410"/>
    </vehicle>
    <vehicle id="res_veh_int134" type="res_veh_int1_passenger" depart="6660.15" departLane="best" departSpeed="max">
        <route edges="E18 E22.488"/>
    </vehicle>
    <vehicle id="res_veh_int135" type="res_veh_int1_passenger" depart="6750.13" departLane="best" departSpeed="max">
        <route edges="E18 E31.622"/>
    </vehicle>
    <vehicle id="res_veh_int139" type="res_veh_int1_passenger" depart="7110.03" departLane="best" departSpeed="max">
        <route edges="E18 E18.410"/>
    </vehicle>
    <vType id="res_veh_int2_passenger" vClass="passenger"/>
    <vehicle id="res_veh_int20" type="res_veh_int2_passenger" depart="7201.00" departLane="best" departSpeed="max">
        <route edges="E31 E18.410"/>
    </vehicle>
    <vehicle id="res_veh_int21" type="res_veh_int2_passenger" depart="7260.98" departLane="best" departSpeed="max">
        <route edges="E31 E18.410"/>
    </vehicle>
    <vehicle id="res_veh_int22" type="res_veh_int2_passenger" depart="7320.97" departLane="best" departSpeed="max">
        <route edges="E31 E30.558"/>
    </vehicle>
    <vehicle id="res_veh_int23" type="res_veh_int2_passenger" depart="7380.95" departLane="best" departSpeed="max">
        <route edges="E31 E18.410"/>
    </vehicle>
    <vehicle id="res_veh_int24" type="res_veh_int2_passenger" depart="7440.93" departLane="best" departSpeed="max">
        <route edges="E31 E18.410"/>
    </vehicle>
    <vehicle id="res_veh_int25" type="res_veh_int2_passenger" depart="7500.92" departLane="best" departSpeed="max">
        <route edges="E31 E30.558"/>
    </vehicle>
    <vehicle id="res_veh_int26" type="res_veh_int2_passenger" depart="7560.90" departLane="best" departSpeed="max">
        <route edges="E18 E18.410"/>
    </vehicle>
    <vehicle id="res_veh_int27" type="res_veh_int2_passenger" depart="7620.88" departLane="best" departSpeed="max">
        <route edges="E31 E30.558"/>
    </vehicle>
    <vehicle id="res_veh_int28" type="res_veh_int2_passenger" depart="7680.87" departLane="best" departSpeed="max">
        <route edges="E31 E30.558"/>
    </vehicle>
    <vehicle id="res_veh_int29" type="res_veh_int2_passenger" depart="7740.85" departLane="best" departSpeed="max">
        <route edges="E31 E18.410"/>
    </vehicle>
    <vehicle id="res_veh_int210" type="res_veh_int2_passenger" depart="7800.83" departLane="best" departSpeed="max">
        <route edges="E31 E30.558"/>
    </vehicle>
    <vehicle id="res_veh_int211" type="res_veh_int2_passenger" depart="7860.82" departLane="best" departSpeed="max">
        <route edges="E31 E18.410"/>
    </vehicle>
    <vehicle id="res_veh_int213" type="res_veh_int2_passenger" depart="7980.78" departLane="best" departSpeed="max">
        <route edges="E18 E18.410"/>
    </vehicle>
    <vehicle id="res_veh_int214" type="res_veh_int2_passenger" depart="8040.77" departLane="best" departSpeed="max">
        <route edges="E31 E30.558"/>
    </vehicle>
    <vehicle id="res_veh_int215" type="res_veh_int2_passenger" depart="8100.75" departLane="best" departSpeed="max">
        <route edges="E31 E30.558"/>
    </vehicle>
    <vehicle id="res_veh_int216" type="res_veh_int2_passenger" depart="8160.73" departLane="best" departSpeed="max">
        <route edges="E31 E31.622"/>
    </vehicle>
    <vehicle id="res_veh_int217" type="res_veh_int2_passenger" depart="8220.72" departLane="best" departSpeed="max">
        <route edges="E31 E30.558"/>
    </vehicle>
    <vehicle id="res_veh_int218" type="res_veh_int2_passenger" depart="8280.70" departLane="best" departSpeed="max">
        <route edges="E31 E30.558"/>
    </vehicle>
    <vehicle id="res_veh_int219" type="res_veh_int2_passenger" depart="8340.68" departLane="best" departSpeed="max">
        <route edges="E31 E30.558"/>
    </vehicle>
    <vehicle id="res_veh_int220" type="res_veh_int2_passenger" depart="8400.67" departLane="best" departSpeed="max">
        <route edges="E31 E18.410"/>
    </vehicle>
    <vehicle id="res_veh_int222" type="res_veh_int2_passenger" depart="8520.63" departLane="best" departSpeed="max">
        <route edges="E18 E18.410"/>
    </vehicle>
    <vehicle id="res_veh_int223" type="res_veh_int2_passenger" depart="8580.62" departLane="best" departSpeed="max">
        <route edges="E18 E22.488"/>
    </vehicle>
    <vehicle id="res_veh_int225" type="res_veh_int2_passenger" depart="8700.58" departLane="best" departSpeed="max">
        <route edges="E31 E18.410"/>
    </vehicle>
    <vehicle id="res_veh_int226" type="res_veh_int2_passenger" depart="8760.57" departLane="best" departSpeed="max">
        <route edges="E31 E31.622"/>
    </vehicle>
    <vehicle id="res_veh_int227" type="res_veh_int2_passenger" depart="8820.55" departLane="best" departSpeed="max">
        <route edges="E31 E30.558"/>
    </vehicle>
    <vehicle id="res_veh_int229" type="res_veh_int2_passenger" depart="8940.52" departLane="best" departSpeed="max">
        <route edges="E18 E22.488"/>
    </vehicle>
    <vehicle id="res_veh_int230" type="res_veh_int2_passenger" depart="9000.50" departLane="best" departSpeed="max">
        <route edges="E31 E30.558"/>
    </vehicle>
    <vehicle id="res_veh_int231" type="res_veh_int2_passenger" depart="9060.48" departLane="best" departSpeed="max">
        <route edges="E31 E30.558"/>
    </vehicle>
    <vehicle id="res_veh_int232" type="res_veh_int2_passenger" depart="9120.47" departLane="best" departSpeed="max">
        <route edges="E31 E31.622"/>
    </vehicle>
    <vehicle id="res_veh_int233" type="res_veh_int2_passenger" depart="9180.45" departLane="best" departSpeed="max">
        <route edges="E31 E18.410"/>
    </vehicle>
    <vehicle id="res_veh_int235" type="res_veh_int2_passenger" depart="9300.42" departLane="best" departSpeed="max">
        <route edges="E18 E31.622"/>
    </vehicle>
    <vehicle id="res_veh_int239" type="res_veh_int2_passenger" depart="9540.35" departLane="best" departSpeed="max">
        <route edges="E31 E18.410"/>
    </vehicle>
    <vehicle id="res_veh_int241" type="res_veh_int2_passenger" depart="9660.32" departLane="best" departSpeed="max">
        <route edges="E31 E31.622"/>
    </vehicle>
    <vehicle id="res_veh_int242" type="res_veh_int2_passenger" depart="9720.30" departLane="best" departSpeed="max">
        <route edges="E31 E18.410"/>
    </vehicle>
    <vehicle id="res_veh_int243" type="res_veh_int2_passenger" depart="9780.28" departLane="best" departSpeed="max">
        <route edges="E31 E30.558"/>
    </vehicle>
    <vehicle id="res_veh_int244" type="res_veh_int2_passenger" depart="9840.27" departLane="best" departSpeed="max">
        <route edges="E18 E18.410"/>
    </vehicle>
    <vehicle id="res_veh_int247" type="res_veh_int2_passenger" depart="10020.22" departLane="best" departSpeed="max">
        <route edges="E18 E22.488"/>
    </vehicle>
    <vehicle id="res_veh_int248" type="res_veh_int2_passenger" depart="10080.20" departLane="best" departSpeed="max">
        <route edges="E31 E30.558"/>
    </vehicle>
    <vehicle id="res_veh_int249" type="res_veh_int2_passenger" depart="10140.18" departLane="best" departSpeed="max">
        <route edges="E31 E31.622"/>
    </vehicle>
    <vehicle id="res_veh_int251" type="res_veh_int2_passenger" depart="10260.15" departLane="best" departSpeed="max">
        <route edges="E31 E30.558"/>
    </vehicle>
    <vehicle id="res_veh_int252" type="res_veh_int2_passenger" depart="10320.13" departLane="best" departSpeed="max">
        <route edges="E31 E30.558"/>
    </vehicle>
    <vehicle id="res_veh_int253" type="res_veh_int2_passenger" depart="10380.12" departLane="best" departSpeed="max">
        <route edges="E18 E22.488"/>
    </vehicle>
    <vehicle id="res_veh_int254" type="res_veh_int2_passenger" depart="10440.10" departLane="best" departSpeed="max">
        <route edges="E31 E31.622"/>
    </vehicle>
    <vehicle id="res_veh_int256" type="res_veh_int2_passenger" depart="10560.07" departLane="best" departSpeed="max">
        <route edges="E31 E18.410"/>
    </vehicle>
    <vehicle id="res_veh_int257" type="res_veh_int2_passenger" depart="10620.05" departLane="best" departSpeed="max">
        <route edges="E31 E31.622"/>
    </vehicle>
    <vehicle id="res_veh_int258" type="res_veh_int2_passenger" depart="10680.03" departLane="best" departSpeed="max">
        <route edges="E31 E30.558"/>
    </vehicle>
    <vehicle id="res_veh_int259" type="res_veh_int2_passenger" depart="10740.02" departLane="best" departSpeed="max">
        <route edges="E31 E18.410"/>
    </vehicle>
    <vType id="res_veh_int3_passenger" vClass="passenger"/>
    <vehicle id="res_veh_int30" type="res_veh_int3_passenger" depart="10801.00" departLane="best" departSpeed="max">
        <route edges="E22 E18.410"/>
    </vehicle>
    <vehicle id="res_veh_int31" type="res_veh_int3_passenger" depart="10845.99" departLane="best" departSpeed="max">
        <route edges="E18 E18.410"/>
    </vehicle>
    <vehicle id="res_veh_int32" type="res_veh_int3_passenger" depart="10890.97" departLane="best" departSpeed="max">
        <route edges="E22 E30.558"/>
    </vehicle>
    <vehicle id="res_veh_int33" type="res_veh_int3_passenger" depart="10935.96" departLane="best" departSpeed="max">
        <route edges="E22 E18.410"/>
    </vehicle>
    <vehicle id="res_veh_int34" type="res_veh_int3_passenger" depart="10980.95" departLane="best" departSpeed="max">
        <route edges="E18 E18.410"/>
    </vehicle>
    <vehicle id="res_veh_int36" type="res_veh_int3_passenger" depart="11070.92" departLane="best" departSpeed="max">
        <route edges="E18 E18.410"/>
    </vehicle>
    <vehicle id="res_veh_int37" type="res_veh_int3_passenger" depart="11115.91" departLane="best" departSpeed="max">
        <route edges="E22 E30.558"/>
    </vehicle>
    <vehicle id="res_veh_int39" type="res_veh_int3_passenger" depart="11205.89" departLane="best" departSpeed="max">
        <route edges="E22 E18.410"/>
    </vehicle>
    <vehicle id="res_veh_int310" type="res_veh_int3_passenger" depart="11250.87" departLane="best" departSpeed="max">
        <route edges="E22 E30.558"/>
    </vehicle>
    <vehicle id="res_veh_int311" type="res_veh_int3_passenger" depart="11295.86" departLane="best" departSpeed="max">
        <route edges="E18 E18.410"/>
    </vehicle>
    <vehicle id="res_veh_int312" type="res_veh_int3_passenger" depart="11340.85" departLane="best" departSpeed="max">
        <route edges="E22 E22.488"/>
    </vehicle>
    <vehicle id="res_veh_int313" type="res_veh_int3_passenger" depart="11385.84" departLane="best" departSpeed="max">
        <route edges="E18 E18.410"/>
    </vehicle>
    <vehicle id="res_veh_int314" type="res_veh_int3_passenger" depart="11430.82" departLane="best" departSpeed="max">
        <route edges="E22 E30.558"/>
    </vehicle>
    <vehicle id="res_veh_int315" type="res_veh_int3_passenger" depart="11475.81" departLane="best" departSpeed="max">
        <route edges="E22 E30.558"/>
    </vehicle>
    <vehicle id="res_veh_int316" type="res_veh_int3_passenger" depart="11520.80" departLane="best" departSpeed="max">
        <route edges="E18 E31.622"/>
    </vehicle>
    <vehicle id="res_veh_int318" type="res_veh_int3_passenger" depart="11610.77" departLane="best" departSpeed="max">
        <route edges="E22 E30.558"/>
    </vehicle>
    <vehicle id="res_veh_int319" type="res_veh_int3_passenger" depart="11655.76" departLane="best" departSpeed="max">
        <route edges="E22 E30.558"/>
    </vehicle>
    <vehicle id="res_veh_int320" type="res_veh_int3_passenger" depart="11700.75" departLane="best" departSpeed="max">
        <route edges="E22 E18.410"/>
    </vehicle>
    <vehicle id="res_veh_int321" type="res_veh_int3_passenger" depart="11745.74" departLane="best" departSpeed="max">
        <route edges="E18 E22.488"/>
    </vehicle>
    <vehicle id="res_veh_int322" type="res_veh_int3_passenger" depart="11790.72" departLane="best" departSpeed="max">
        <route edges="E18 E18.410"/>
    </vehicle>
    <vehicle id="res_veh_int323" type="res_veh_int3_passenger" depart="11835.71" departLane="best" departSpeed="max">
        <route edges="E18 E22.488"/>
    </vehicle>
    <vehicle id="res_veh_int324" type="res_veh_int3_passenger" depart="11880.70" departLane="best" departSpeed="max">
        <route edges="E22 E22.488"/>
    </vehicle>
    <vehicle id="res_veh_int325" type="res_veh_int3_passenger" depart="11925.69" departLane="best" departSpeed="max">
        <route edges="E18 E18.410"/>
    </vehicle>
    <vehicle id="res_veh_int326" type="res_veh_int3_passenger" depart="11970.67" departLane="best" departSpeed="max">
        <route edges="E18 E31.622"/>
    </vehicle>
    <vehicle id="res_veh_int327" type="res_veh_int3_passenger" depart="12015.66" departLane="best" departSpeed="max">
        <route edges="E22 E30.558"/>
    </vehicle>
    <vehicle id="res_veh_int329" type="res_veh_int3_passenger" depart="12105.64" departLane="best" departSpeed="max">
        <route edges="E18 E22.488"/>
    </vehicle>
    <vehicle id="res_veh_int330" type="res_veh_int3_passenger" depart="12150.62" departLane="best" departSpeed="max">
        <route edges="E22 E30.558"/>
    </vehicle>
    <vehicle id="res_veh_int333" type="res_veh_int3_passenger" depart="12285.59" departLane="best" departSpeed="max">
        <route edges="E18 E18.410"/>
    </vehicle>
    <vehicle id="res_veh_int334" type="res_veh_int3_passenger" depart="12330.57" departLane="best" departSpeed="max">
        <route edges="E18 E22.488"/>
    </vehicle>
    <vehicle id="res_veh_int335" type="res_veh_int3_passenger" depart="12375.56" departLane="best" departSpeed="max">
        <route edges="E18 E31.622"/>
    </vehicle>
    <vehicle id="res_veh_int336" type="res_veh_int3_passenger" depart="12420.55" departLane="best" departSpeed="max">
        <route edges="E22 E22.488"/>
    </vehicle>
    <vehicle id="res_veh_int337" type="res_veh_int3_passenger" depart="12465.54" departLane="best" departSpeed="max">
        <route edges="E22 E22.488"/>
    </vehicle>
    <vehicle id="res_veh_int338" type="res_veh_int3_passenger" depart="12510.52" departLane="best" departSpeed="max">
        <route edges="E22 E22.488"/>
    </vehicle>
    <vehicle id="res_veh_int339" type="res_veh_int3_passenger" depart="12555.51" departLane="best" departSpeed="max">
        <route edges="E18 E18.410"/>
    </vehicle>
    <vehicle id="res_veh_int340" type="res_veh_int3_passenger" depart="12600.50" departLane="best" departSpeed="max">
        <route edges="E18 E22.488"/>
    </vehicle>
    <vehicle id="res_veh_int341" type="res_veh_int3_passenger" depart="12645.49" departLane="best" departSpeed="max">
        <route edges="E18 E31.622"/>
    </vehicle>
    <vehicle id="res_veh_int342" type="res_veh_int3_passenger" depart="12690.47" departLane="best" departSpeed="max">
        <route edges="E18 E18.410"/>
    </vehicle>
    <vehicle id="res_veh_int343" type="res_veh_int3_passenger" depart="12735.46" departLane="best" departSpeed="max">
        <route edges="E22 E30.558"/>
    </vehicle>
    <vehicle id="res_veh_int344" type="res_veh_int3_passenger" depart="12780.45" departLane="best" departSpeed="max">
        <route edges="E18 E18.410"/>
    </vehicle>
    <vehicle id="res_veh_int346" type="res_veh_int3_passenger" depart="12870.42" departLane="best" departSpeed="max">
        <route edges="E22 E22.488"/>
    </vehicle>
    <vehicle id="res_veh_int347" type="res_veh_int3_passenger" depart="12915.41" departLane="best" departSpeed="max">
        <route edges="E18 E22.488"/>
    </vehicle>
    <vehicle id="res_veh_int348" type="res_veh_int3_passenger" depart="12960.40" departLane="best" departSpeed="max">
        <route edges="E22 E30.558"/>
    </vehicle>
    <vehicle id="res_veh_int351" type="res_veh_int3_passenger" depart="13095.36" departLane="best" departSpeed="max">
        <route edges="E22 E30.558"/>
    </vehicle>
    <vehicle id="res_veh_int353" type="res_veh_int3_passenger" depart="13185.34" departLane="best" departSpeed="max">
        <route edges="E18 E22.488"/>
    </vehicle>
    <vehicle id="res_veh_int354" type="res_veh_int3_passenger" depart="13230.32" departLane="best" departSpeed="max">
        <route edges="E18 E31.622"/>
    </vehicle>
    <vehicle id="res_veh_int355" type="res_veh_int3_passenger" depart="13275.31" departLane="best" departSpeed="max">
        <route edges="E22 E22.488"/>
    </vehicle>
    <vehicle id="res_veh_int356" type="res_veh_int3_passenger" depart="13320.30" departLane="best" departSpeed="max">
        <route edges="E18 E18.410"/>
    </vehicle>
    <vehicle id="res_veh_int359" type="res_veh_int3_passenger" depart="13455.26" departLane="best" departSpeed="max">
        <route edges="E22 E18.410"/>
    </vehicle>
    <vehicle id="res_veh_int360" type="res_veh_int3_passenger" depart="13500.25" departLane="best" departSpeed="max">
        <route edges="E22 E30.558"/>
    </vehicle>
    <vehicle id="res_veh_int361" type="res_veh_int3_passenger" depart="13545.24" departLane="best" departSpeed="max">
        <route edges="E22 E30.558"/>
    </vehicle>
    <vehicle id="res_veh_int362" type="res_veh_int3_passenger" depart="13590.22" departLane="best" departSpeed="max">
        <route edges="E18 E22.488"/>
    </vehicle>
    <vehicle id="res_veh_int363" type="res_veh_int3_passenger" depart="13635.21" departLane="best" departSpeed="max">
        <route edges="E18 E31.622"/>
    </vehicle>
    <vehicle id="res_veh_int365" type="res_veh_int3_passenger" depart="13725.19" departLane="best" departSpeed="max">
        <route edges="E18 E18.410"/>
    </vehicle>
    <vehicle id="res_veh_int367" type="res_veh_int3_passenger" depart="13815.16" departLane="best" departSpeed="max">
        <route edges="E18 E22.488"/>
    </vehicle>
    <vehicle id="res_veh_int368" type="res_veh_int3_passenger" depart="13860.15" departLane="best" departSpeed="max">
        <route edges="E18 E31.622"/>
    </vehicle>
    <vehicle id="res_veh_int369" type="res_veh_int3_passenger" depart="13905.14" departLane="best" departSpeed="max">
        <route edges="E22 E18.410"/>
    </vehicle>
    <vehicle id="res_veh_int371" type="res_veh_int3_passenger" depart="13995.11" departLane="best" departSpeed="max">
        <route edges="E18 E31.622"/>
    </vehicle>
    <vehicle id="res_veh_int372" type="res_veh_int3_passenger" depart="14040.10" departLane="best" departSpeed="max">
        <route edges="E18 E18.410"/>
    </vehicle>
    <vehicle id="res_veh_int374" type="res_veh_int3_passenger" depart="14130.07" departLane="best" departSpeed="max">
        <route edges="E18 E22.488"/>
    </vehicle>
    <vehicle id="res_veh_int375" type="res_veh_int3_passenger" depart="14175.06" departLane="best" departSpeed="max">
        <route edges="E22 E30.558"/>
    </vehicle>
    <vehicle id="res_veh_int377" type="res_veh_int3_passenger" depart="14265.04" departLane="best" departSpeed="max">
        <route edges="E18 E18.410"/>
    </vehicle>
    <vehicle id="res_veh_int379" type="res_veh_int3_passenger" depart="14355.01" departLane="best" departSpeed="max">
        <route edges="E18 E18.410"/>
    </vehicle>
</routes>
