<?xml version="1.0" encoding="UTF-8"?>

<!-- generated on 2025-05-20 11:51:06 by Eclipse SUMO netedit Version 1.22.0
-->

<routes xmlns:xsi="http://www.w3.org/2001/XMLSchema-instance" xsi:noNamespaceSchemaLocation="http://sumo.dlr.de/xsd/routes_file.xsd">
    <!-- VTypes -->
    <vType id="bike_bicycle" vClass="bicycle"/>
    <vType id="motorcycle_motorcycle" vClass="motorcycle"/>
    <vType id="ped_pedestrian" vClass="pedestrian"/>
    <vType id="veh_passenger" vClass="passenger"/>
    <!-- Vehicles, persons and containers (sorted by depart) -->
    <vehicle id="motorcycle0" type="motorcycle_motorcycle" depart="0.00" departLane="best" departSpeed="max">
        <route edges="641423230 -118575975#1"/>
    </vehicle>
    <vehicle id="veh0" type="veh_passenger" depart="0.00" departLane="best">
        <route edges="295128790#5 295128790#6 295128790#7 295128790#8"/>
    </vehicle>
    <vehicle id="veh2" type="veh_passenger" depart="5.12" departLane="best" departSpeed="max">
        <route edges="118575972#0 118575972#1 689583179#1 689583179#2 689583179#4 689583179#5 693885804#1 693885804#1.60 693416739#0"/>
    </vehicle>
    <vehicle id="veh3" type="veh_passenger" depart="7.67" departLane="best" departSpeed="max">
        <route edges="118575972#0 118575972#1 689583179#1 689583179#2 689583179#4 689583179#5 693885803#0"/>
    </vehicle>
    <vehicle id="veh4" type="veh_passenger" depart="10.23" departLane="best">
        <route edges="695040102#1 -295386152#4 -295386152#3 -295386152#2 -295386152#1 -118575975#6 -118575975#5 -118575975#4 -118575975#3 -118575975#2 -118575975#1 -118575975#0 -118575972#0"/>
    </vehicle>
    <trip id="bike3" type="bike_bicycle" depart="11.20" departLane="best" departSpeed="max" from="698936203#0" to="-372467078#0"/>
    <vehicle id="veh5" type="veh_passenger" depart="12.79" departLane="best">
        <route edges="828678749#0 -695040102#0 695040105#3 118573606#3 118573606#4 118573606#6 118573606#8 118573606#9 118573606#10 118573606#12 372467078#0 372467078#1"/>
    </vehicle>
    <vehicle id="motorcycle2" type="motorcycle_motorcycle" depart="15.35" departLane="best">
        <route edges="693885803#3"/>
    </vehicle>
    <vehicle id="veh6" type="veh_passenger" depart="15.35" departLane="best" departSpeed="max">
        <route edges="-696756023 -295386152#7 -295386152#6 -295386152#4 -295386152#3 -295386152#2 -295386152#1 -118575975#6 -828678745#1 -828678745#0"/>
    </vehicle>
    <vehicle id="veh7" type="veh_passenger" depart="17.91" departLane="best" departSpeed="max">
        <route edges="695510006 295128790#1 295128790#2 295128790#5 295128790#6 295128790#7 295128790#8 295128790#9 295128790#10 693885803#0 693885803#2"/>
    </vehicle>
    <trip id="bike5" type="bike_bicycle" depart="18.67" departLane="best" from="695040107#2" to="408161670#0"/>
    <vehicle id="veh8" type="veh_passenger" depart="20.47" departLane="best" departSpeed="max">
        <route edges="302751284 694829084#1 E0 693416739#0 693416739#0.11 693416739#1"/>
    </vehicle>
    <trip id="bike6" type="bike_bicycle" depart="22.40" departLane="best" from="-118575975#6" to="695673446#0"/>
    <vehicle id="motorcycle3" type="motorcycle_motorcycle" depart="23.02" departLane="best" departSpeed="max">
        <route edges="698936203#0 698936203#1 -295386152#3 -295386152#2"/>
    </vehicle>
    <vehicle id="veh9" type="veh_passenger" depart="23.02" departLane="best">
        <route edges="695040105#2 695040102#0 828678749#1 698936203#3 295128790#5 295128790#6 295128790#7 295128790#8 295128790#9 295128790#10 693885803#0 693885803#2 693885803#3 693885803#5 693885803#6"/>
    </vehicle>
    <trip id="bike7" type="bike_bicycle" depart="26.14" departLane="best" from="408161670#4" to="408161670#8"/>
    <vehicle id="veh12" type="veh_passenger" depart="30.70" departLane="best">
        <route edges="-118575975#0 118575972#1 689583179#1 689583179#2 689583179#4 689583179#5 1096471623#0 695511482#4 35950897#2"/>
    </vehicle>
    <vehicle id="veh13" type="veh_passenger" depart="33.26" departLane="best">
        <route edges="695040102#0 828678749#1 698936203#3 295128790#5 295128790#6 295128790#7 295128790#8 295128790#9"/>
    </vehicle>
    <vehicle id="veh14" type="veh_passenger" depart="35.81" departLane="best">
        <route edges="693885802#2 693885802#3 695030266 1279915895#1 408161670#0"/>
    </vehicle>
    <trip id="bike10" type="bike_bicycle" depart="37.34" departLane="best" from="695030266" to="695027207"/>
    <vehicle id="motorcycle5" type="motorcycle_motorcycle" depart="38.37" departLane="best">
        <route edges="118575975#5 118575975#6 295386152#1 295386152#2 295386152#3 698936203#2 698936203#3 1279915895#1 408161670#0 408161670#1"/>
    </vehicle>
    <vehicle id="veh15" type="veh_passenger" depart="38.37" departLane="best" departSpeed="max">
        <route edges="302751284 694829084#1 E0 695025562#1 695025559 693885802#0 693885802#1 693885802#2 693885802#3 695030266 295128790#5 295128790#6"/>
    </vehicle>
    <vehicle id="veh16" type="veh_passenger" depart="40.93" departLane="best" departSpeed="max">
        <route edges="-828678747 698936203#1 698936203#2 698936203#3 1279915895#1 408161670#0 408161670#1 408161670#2 408161670#3 408161670#4 408161670#5 408161670#6 408161670#8 408161670#9 408161670#10"/>
    </vehicle>
    <trip id="bike11" type="bike_bicycle" depart="41.07" departLane="best" departSpeed="max" from="-828678748" to="-695040102#1"/>
    <trip id="bike12" type="bike_bicycle" depart="44.80" departLane="best" from="828678899" to="1192334146#0"/>
    <vehicle id="motorcycle6" type="motorcycle_motorcycle" depart="46.05" departLane="best">
        <route edges="-118575975#3 -118575975#2 -118575975#1 -118575975#0 118575972#1 689583179#1 689583179#2 689583179#4 689583179#5 1096471623#0"/>
    </vehicle>
    <vehicle id="veh18" type="veh_passenger" depart="46.05" departLane="best" departSpeed="max">
        <route edges="695510006 295128790#1 295128790#2 295128790#5 295128790#6 295128790#7 295128790#8 295128790#9 295128790#10 1096471623#0 695511482#4 35950897#2 35950897#3"/>
    </vehicle>
    <trip id="bike13" type="bike_bicycle" depart="48.54" departLane="best" from="-372468201#1" to="-372468201#0"/>
    <trip id="bike14" type="bike_bicycle" depart="52.27" departLane="best" from="695040107#2" to="693416739#0"/>
    <person id="ped10" type="ped_pedestrian" depart="52.64">
        <walk edges="695040107#2 695040107#1 -695040107#0 -931369479#3 642035208#1"/>
    </person>
    <vehicle id="motorcycle7" type="motorcycle_motorcycle" depart="53.72" departLane="best" departSpeed="max">
        <route edges="689583179#0 689583179#1 689583179#2 689583179#4 302739240#0 302739240#1 302739240#2 302739240#3 693885802#2 693885802#3 695030266 1279915895#1 408161670#0 408161670#1 408161670#2 408161670#3"/>
    </vehicle>
    <vehicle id="veh21" type="veh_passenger" depart="53.72" departLane="best" departSpeed="max">
        <route edges="689583179#0 689583179#1 689583179#2 689583179#4 302739240#0 302739240#1 302739240#2 302739240#3 693885802#2 693885802#3 295386152#0 295386152#1 295386152#2 295386152#3 295386152#4 295386152#6 295386152#7 295386152#8"/>
    </vehicle>
    <trip id="bike15" type="bike_bicycle" depart="56.01" departLane="best" from="695030266" to="695040105#0"/>
    <vehicle id="veh22" type="veh_passenger" depart="56.28" departLane="best">
        <route edges="695025562#1 695025559 693885802#0 693885802#1 693885802#2 693885802#3 695030266 1279915895#1 408161670#0 408161670#1 408161670#2 408161670#3"/>
    </vehicle>
    <vehicle id="veh23" type="veh_passenger" depart="58.84" departLane="best" departSpeed="max">
        <route edges="-404718839 689583179#2 689583179#4 302739240#0 302739240#1 302739240#2 302739240#3 693885802#2 693885802#3 695030266 1279915895#1 408161670#0 408161670#1 408161670#2 408161670#3 408161670#4 408161670#5 408161670#6 408161670#8 408161670#9 408161670#10"/>
    </vehicle>
    <trip id="bike16" type="bike_bicycle" depart="59.74" departLane="best" from="295386152#2" to="931369479#1"/>
    <vehicle id="motorcycle8" type="motorcycle_motorcycle" depart="61.40" departLane="best">
        <route edges="-828678745#1 828678744 -118575975#4 -118575975#3 -118575975#2 -118575975#1 -118575975#0 118575972#1 689583179#1 689583179#2"/>
    </vehicle>
    <vehicle id="veh25" type="veh_passenger" depart="63.96" departLane="best">
        <route edges="295128790#2 295128790#5 295128790#6 295128790#7 295128790#8 295128790#9 295128790#10 693885804#1"/>
    </vehicle>
    <vehicle id="veh26" type="veh_passenger" depart="66.51" departLane="best" departSpeed="max">
        <route edges="-828678742 118575975#1 118575975#2 118575975#3 118575975#4 118575975#5 118575975#6 295386152#1 295386152#2 295386152#3 698936203#2 698936203#3 1279915895#1 408161670#0 408161670#1 408161670#2 408161670#3 408161670#4 408161670#5"/>
    </vehicle>
    <trip id="bike18" type="bike_bicycle" depart="67.21" departLane="best" from="695040105#1" to="693885802#0"/>
    <person id="ped13" type="ped_pedestrian" depart="68.44">
        <walk edges="-642035207#1 642035207#0 -931369479#3 -642035208#0"/>
    </person>
    <vehicle id="motorcycle9" type="motorcycle_motorcycle" depart="69.07" departLane="best">
        <route edges="694830397.22 695025562#1 695025559 693885802#0 693885802#1 693885802#2 693885802#3 295386152#0 -118575975#6 -118575975#5 -118575975#4 -118575975#3 -118575975#2 -118575975#1 -118575975#0 -118575972#0"/>
    </vehicle>
    <vehicle id="veh27" type="veh_passenger" depart="69.07" departLane="best">
        <route edges="118575972#1 689583179#1 689583179#2 689583179#4 689583179#5 1096471623#0 695511482#4 35950897#2 35950897#3"/>
    </vehicle>
    <trip id="bike19" type="bike_bicycle" depart="70.94" departLane="best" departSpeed="max" from="695510006" to="642035208#1"/>
    <trip id="bike20" type="bike_bicycle" depart="74.67" departLane="best" departSpeed="max" from="689583179#0" to="-1255581684"/>
    <vehicle id="motorcycle10" type="motorcycle_motorcycle" depart="76.75" departLane="best">
        <route edges="694830397.22 695025562#1 693885803#0 693885803#2 693885803#3 693885803#5 693885803#6 693885803#8 693885803#9"/>
    </vehicle>
    <vehicle id="veh30" type="veh_passenger" depart="76.75" departLane="best" departSpeed="max">
        <route edges="-696756023 -295386152#7 -295386152#6 -295386152#4 -295386152#3 -295386152#2 -295386152#1 -118575975#6 -118575975#5 -118575975#4 -118575975#3 -118575975#2 -118575975#1 -118575975#0 118575972#1 689583179#1 689583179#2 689583179#4 689583179#5"/>
    </vehicle>
    <vehicle id="veh31" type="veh_passenger" depart="79.30" departLane="best" departSpeed="max">
        <route edges="-695027208 302739240#3 693885802#2 693885802#3 695030266 695040105#0 695040105#1 695040105#2 695040105#3"/>
    </vehicle>
    <vehicle id="veh32" type="veh_passenger" depart="81.86" departLane="best">
        <route edges="694830397 694830397.22 695025562#1 695025559 693885802#0 693885802#1 693885802#2 693885802#3 695030266 695040105#0 695040105#1 695040105#2 695040105#3 118573606#3 118573606#4 118573606#6 118573606#8 118573606#9 118573606#10"/>
    </vehicle>
    <trip id="bike22" type="bike_bicycle" depart="82.14" departLane="best" from="-295386175#1" to="-828678854#2"/>
    <vehicle id="motorcycle11" type="motorcycle_motorcycle" depart="84.42" departLane="best" departSpeed="max">
        <route edges="118575972#0 118575975#0 118575975#1 118575975#2 828678741#0"/>
    </vehicle>
    <person id="ped17" type="ped_pedestrian" depart="89.50">
        <walk edges="1204196250#0 1204196249#3 1204196249#2 1204196249#1 694830398#3 1384907062#7"/>
    </person>
    <vehicle id="veh35" type="veh_passenger" depart="89.54" departLane="best" departSpeed="max">
        <route edges="689583179#0 689583179#1 689583179#2 689583179#4 302739240#0 302739240#1 302739240#2 302739240#3 693885802#2 693885802#3 695030266"/>
    </vehicle>
    <trip id="bike24" type="bike_bicycle" depart="89.61" departLane="best" from="408161670#12" to="295128790#7"/>
    <vehicle id="motorcycle12" type="motorcycle_motorcycle" depart="92.10" departLane="best">
        <route edges="828678749#0 828678749#1 698936203#3 295128790#5"/>
    </vehicle>
    <trip id="bike26" type="bike_bicycle" depart="97.08" departLane="best" departSpeed="max" from="-695691453" to="828678895"/>
    <vehicle id="motorcycle13" type="motorcycle_motorcycle" depart="99.77" departLane="best">
        <route edges="-295386152#7 -295386152#6 -295386152#4"/>
    </vehicle>
    <vehicle id="veh39" type="veh_passenger" depart="99.77" departLane="best" departSpeed="max">
        <route edges="118575972#0 118575975#0 118575975#1 118575975#2 118575975#3 118575975#4 118575975#5 118575975#6 295386152#1 295386152#2 295386152#3 698936203#2 698936203#3 695040105#0 695040105#1 695040105#2 695040105#3 118573606#3"/>
    </vehicle>
    <trip id="bike27" type="bike_bicycle" depart="100.81" departLane="best" from="408161670#3" to="693416739#1"/>
    <vehicle id="veh40" type="veh_passenger" depart="102.33" departLane="best">
        <route edges="-828678741#0 118575975#3 118575975#4 118575975#5 118575975#6 295386152#1 295386152#2 295386152#3 698936203#2 698936203#3 1279915895#1 408161670#0 408161670#1 408161670#2 408161670#3 408161670#4"/>
    </vehicle>
    <vehicle id="motorcycle14" type="motorcycle_motorcycle" depart="107.44" departLane="best">
        <route edges="695040105#1 695040105#2 695040102#0 828678749#1 698936203#3 295128790#5 295128790#6 295128790#7 295128790#8 295128790#9 295128790#10 693885804#1 693885804#1.60 693416739#0"/>
    </vehicle>
    <vehicle id="veh42" type="veh_passenger" depart="107.44" departLane="best">
        <route edges="118573606#0 118573606#1 295128790#1 295128790#2 1279915895#1 408161670#0 408161670#1 408161670#2 408161670#3 408161670#4 408161670#5 408161670#6 408161670#8"/>
    </vehicle>
    <vehicle id="motorcycle15" type="motorcycle_motorcycle" depart="115.12" departLane="best">
        <route edges="694830397.22"/>
    </vehicle>
    <vehicle id="veh45" type="veh_passenger" depart="115.12" departLane="best" departSpeed="max">
        <route edges="689583179#0 689583179#1 689583179#2 689583179#4 302739240#0 302739240#1 302739240#2 302739240#3 693885802#2 693885802#3 295386152#0 295386152#1 295386152#2 295386152#3 295386152#4 295386152#6"/>
    </vehicle>
    <vehicle id="veh46" type="veh_passenger" depart="117.68" departLane="best">
        <route edges="E0 695025562#1 695025559 693885802#0 693885802#1 693885802#2 693885802#3 295386152#0 295386152#1 295386152#2 828678746"/>
    </vehicle>
    <trip id="bike32" type="bike_bicycle" depart="119.48" departLane="best" from="695040107#1" to="695691448"/>
    <person id="ped23" type="ped_pedestrian" depart="121.08">
        <walk edges="-642035208#1 931369479#2 -931369479#1"/>
    </person>
    <vehicle id="veh48" type="veh_passenger" depart="122.79" departLane="best" departSpeed="max">
        <route edges="302751284 694829084#1 E0 695025562#1 695025559 693885802#0 693885802#1 693885802#2 693885802#3 295386152#0 -118575975#6 -118575975#5 -118575975#4 -118575975#3 -118575975#2 -118575975#1 -118575975#0 118575972#1 689583179#1 689583179#2 689583179#4 E2"/>
    </vehicle>
    <trip id="bike34" type="bike_bicycle" depart="126.95" departLane="best" from="-118575975#5" to="1096471623#0"/>
    <vehicle id="veh50" type="veh_passenger" depart="127.91" departLane="best">
        <route edges="828678749#0 828678749#1 698936203#3 295128790#5 295128790#6 295128790#7 295128790#8 295128790#9 295128790#10 693885804#1 E4"/>
    </vehicle>
    <vehicle id="motorcycle17" type="motorcycle_motorcycle" depart="130.47" departLane="best">
        <route edges="118575975#4 118575975#5 118575975#6 295386152#1 295386152#2 295386152#3 698936203#2 698936203#3 1279915895#1 408161670#0 408161670#1 408161670#2 408161670#3 408161670#4"/>
    </vehicle>
    <vehicle id="veh51" type="veh_passenger" depart="130.47" departLane="best" departSpeed="max">
        <route edges="-828678747 698936203#1 698936203#2 698936203#3 295128790#5 295128790#6 295128790#7 295128790#8 295128790#9 295128790#10 1096471623#0 695511482#4 35950897#2 35950897#3"/>
    </vehicle>
    <trip id="bike35" type="bike_bicycle" depart="130.68" departLane="best" from="-695040107#0" to="828678896"/>
    <vehicle id="veh52" type="veh_passenger" depart="133.03" departLane="best" departSpeed="max">
        <route edges="689583179#0 689583179#1 689583179#2 689583179#4 302739240#0 302739240#1 302739240#2 302739240#3 693885802#2 693885802#3 695030266 695040105#0 695040105#1"/>
    </vehicle>
    <trip id="bike36" type="bike_bicycle" depart="134.41" departLane="best" departSpeed="max" from="695512891" to="-118575975#2"/>
    <person id="ped26" type="ped_pedestrian" depart="136.88">
        <walk edges="-931369478 -695040107#0 695040107#1 828678899"/>
    </person>
    <vehicle id="motorcycle18" type="motorcycle_motorcycle" depart="138.14" departLane="best">
        <route edges="695040102#0 828678749#1 698936203#3 295128790#5 295128790#6 295128790#7 295128790#8 295128790#9 295128790#10 693885804#1 693885804#1.60 693416739#0 693416739#0.11 693416739#1"/>
    </vehicle>
    <vehicle id="veh54" type="veh_passenger" depart="138.14" departLane="best">
        <route edges="695040102#0 828678749#1 698936203#3 295128790#5 295128790#6 295128790#7 295128790#8 295128790#9 295128790#10"/>
    </vehicle>
    <trip id="bike38" type="bike_bicycle" depart="141.88" departLane="best" from="-828678741#0" to="-372468201#1"/>
    <trip id="bike39" type="bike_bicycle" depart="145.61" departLane="best" departSpeed="max" from="-695691452" to="-828678900"/>
    <vehicle id="motorcycle19" type="motorcycle_motorcycle" depart="145.82" departLane="best">
        <route edges="695040105#3 295128790#1 295128790#2 1279915895#1 408161670#0 408161670#1 408161670#2 408161670#3 408161670#4 408161670#5 408161670#6 408161670#8 408161670#9"/>
    </vehicle>
    <vehicle id="veh57" type="veh_passenger" depart="145.82" departLane="best">
        <route edges="118575975#5 118575975#6 295386152#1 295386152#2 295386152#3 698936203#2 698936203#3 1279915895#1 408161670#0 408161670#1 408161670#2 408161670#3 408161670#4 408161670#5 408161670#6 408161670#8 408161670#9 408161670#10 408161670#11 408161670#12"/>
    </vehicle>
    <vehicle id="veh58" type="veh_passenger" depart="148.38" departLane="best" departSpeed="max">
        <route edges="-695027208 302739240#3 693885802#2 693885802#3 695030266 1279915895#1 408161670#0 408161670#1 408161670#2 408161670#3 408161670#4 408161670#5 408161670#6 408161670#8 408161670#9"/>
    </vehicle>
    <vehicle id="motorcycle20" type="motorcycle_motorcycle" depart="153.49" departLane="best">
        <route edges="693885802#1 693885802#2 693885802#3 295386152#0 -118575975#6 -118575975#5 -118575975#4"/>
    </vehicle>
    <vehicle id="veh60" type="veh_passenger" depart="153.49" departLane="best" departSpeed="max">
        <route edges="302751284 694829084#1 E0 695025562#1 695025559 693885802#0 693885802#1 693885802#2 693885802#3 295386152#0 -118575975#6 -118575975#5 -118575975#4"/>
    </vehicle>
    <vehicle id="motorcycle21" type="motorcycle_motorcycle" depart="161.17" departLane="best" departSpeed="max">
        <route edges="-828678746 -295386152#2 -295386152#1 -118575975#6 -118575975#5 -118575975#4 -118575975#3"/>
    </vehicle>
    <vehicle id="veh63" type="veh_passenger" depart="161.17" departLane="best">
        <route edges="698936203#3 295128790#5 295128790#6 295128790#7 295128790#8 295128790#9 295128790#10 1096471623#0 695511482#4 35950897#2 35950897#3"/>
    </vehicle>
    <vehicle id="veh65" type="veh_passenger" depart="166.28" departLane="best" departSpeed="max">
        <route edges="-828678743 -118575975#3 -118575975#2 -118575975#1 -118575975#0 118575972#1 689583179#1 689583179#2 689583179#4 689583179#5 1096471623#0"/>
    </vehicle>
    <vehicle id="motorcycle22" type="motorcycle_motorcycle" depart="168.84" departLane="best">
        <route edges="-295386152#4 698936203#2 698936203#3 695040105#0 695040105#1 695040105#2 695040105#3 118573606#3"/>
    </vehicle>
    <vehicle id="veh66" type="veh_passenger" depart="168.84" departLane="best">
        <route edges="295128790#2 295128790#5 295128790#6 295128790#7 295128790#8 295128790#9 295128790#10 693885803#0 693885803#2 693885803#3"/>
    </vehicle>
    <vehicle id="veh67" type="veh_passenger" depart="171.40" departLane="best">
        <route edges="694829084#1 E0 695025562#1 695025559 693885802#0 693885802#1 693885802#2 693885802#3 695030266 295128790#5"/>
    </vehicle>
    <trip id="bike46" type="bike_bicycle" depart="171.75" departLane="best" from="694830397" to="302739240#1"/>
    <vehicle id="veh68" type="veh_passenger" depart="173.96" departLane="best">
        <route edges="693885802#2 693885802#3 295386152#0 295386152#1 295386152#2 295386152#3 295386152#4 295386152#6 295386152#7 295386152#8"/>
    </vehicle>
    <trip id="bike47" type="bike_bicycle" depart="175.48" departLane="best" from="-295386152#7" to="-295386152#2"/>
    <vehicle id="motorcycle23" type="motorcycle_motorcycle" depart="176.52" departLane="best" departSpeed="max">
        <route edges="-295386152#8 -295386152#7 -295386152#6 -295386152#4 -295386152#3 -295386152#2 -295386152#1 -118575975#6 -118575975#5 -118575975#4 -118575975#3 -118575975#2 -118575975#1"/>
    </vehicle>
    <vehicle id="motorcycle24" type="motorcycle_motorcycle" depart="184.19" departLane="best" departSpeed="max">
        <route edges="641423230 118575975#2 118575975#3 118575975#4 118575975#5 118575975#6 295386152#1 295386152#2 295386152#3 698936203#2 698936203#3 295128790#5 295128790#6 295128790#7 295128790#8 295128790#9"/>
    </vehicle>
    <vehicle id="veh72" type="veh_passenger" depart="184.19" departLane="best">
        <route edges="-118575975#0 118575972#1 689583179#1 689583179#2 689583179#4 689583179#5 1096471623#0 695511482#4"/>
    </vehicle>
    <trip id="bike50" type="bike_bicycle" depart="186.69" departLane="best" from="118575975#2" to="695040103"/>
    <vehicle id="veh73" type="veh_passenger" depart="186.75" departLane="best">
        <route edges="693885802#2 693885802#3 295386152#0 295386152#1 295386152#2 295386152#3 295386152#4 295386152#6 295386152#7 295386152#8"/>
    </vehicle>
    <trip id="bike51" type="bike_bicycle" depart="190.42" departLane="best" departSpeed="max" from="641423230" to="408161670#5"/>
    <vehicle id="motorcycle25" type="motorcycle_motorcycle" depart="191.87" departLane="best">
        <route edges="118575975#3 118575975#4 118575975#5 118575975#6 295386152#1 295386152#2 295386152#3 295386152#4 295386152#6 118573606#0"/>
    </vehicle>
    <vehicle id="veh75" type="veh_passenger" depart="191.87" departLane="best" departSpeed="max">
        <route edges="698936203#0 698936203#1 698936203#2 698936203#3 295128790#5 295128790#6 295128790#7 295128790#8 295128790#9 295128790#10 693885804#1 693885804#1.60 693416739#0 693416739#0.11 693416739#1"/>
    </vehicle>
    <trip id="bike52" type="bike_bicycle" depart="194.15" departLane="best" departSpeed="max" from="-695691453" to="693885803#2"/>
    <vehicle id="veh77" type="veh_passenger" depart="196.98" departLane="best" departSpeed="max">
        <route edges="-828678746 295386152#3 698936203#2 698936203#3 695040105#0 695040105#1 695040105#2 695040105#3 118573606#3 118573606#4 118573606#6 118573606#8 118573606#9 118573606#10"/>
    </vehicle>
    <trip id="bike53" type="bike_bicycle" depart="197.89" departLane="best" from="-372469388#1" to="35950897#2"/>
    <trip id="bike54" type="bike_bicycle" depart="201.62" departLane="best" departSpeed="max" from="118575972#0" to="-828678898"/>
    <vehicle id="veh80" type="veh_passenger" depart="204.66" departLane="best">
        <route edges="695040102#1 -295386152#4 -295386152#3 -295386152#2 -295386152#1 -118575975#6 -118575975#5 -118575975#4 -118575975#3 828678741#0 828678741#1"/>
    </vehicle>
    <trip id="bike55" type="bike_bicycle" depart="205.35" departLane="best" departSpeed="max" from="695512891" to="-931369479#3"/>
    <vehicle id="motorcycle27" type="motorcycle_motorcycle" depart="207.21" departLane="best" departSpeed="max">
        <route edges="689583179#0 689583179#1 689583179#2 689583179#4 E2 693416739#0.11"/>
    </vehicle>
    <vehicle id="veh81" type="veh_passenger" depart="207.21" departLane="best">
        <route edges="695040102#1 -295386152#4 -295386152#3 -295386152#2 -295386152#1 -118575975#6 -118575975#5 -118575975#4 -118575975#3 -118575975#2 -118575975#1 -118575975#0 118575972#1 689583179#1 689583179#2 689583179#4 302739240#0"/>
    </vehicle>
    <trip id="bike56" type="bike_bicycle" depart="209.09" departLane="best" from="295128790#1" to="-695511483"/>
    <vehicle id="veh82" type="veh_passenger" depart="209.77" departLane="best">
        <route edges="695025562#1 695025559 693885802#0 693885802#1 693885802#2 693885802#3 295386152#0 -118575975#6 -828678745#1"/>
    </vehicle>
    <vehicle id="veh83" type="veh_passenger" depart="212.33" departLane="best" departSpeed="max">
        <route edges="695510006 295128790#1 295128790#2 295128790#5 295128790#6 295128790#7 295128790#8 295128790#9 295128790#10 693885804#1 693885804#1.60 779462187#1.4 779462187#1.9"/>
    </vehicle>
    <trip id="bike57" type="bike_bicycle" depart="212.82" departLane="best" from="-828678741#0" to="828678742"/>
    <vehicle id="veh84" type="veh_passenger" depart="214.89" departLane="best" departSpeed="max">
        <route edges="118575972#0 118575972#1 689583179#1 689583179#2 689583179#4 689583179#5 693885804#1 693885804#1.60 779462187#1.4 779462187#1.9"/>
    </vehicle>
    <trip id="bike58" type="bike_bicycle" depart="216.56" departLane="best" departSpeed="max" from="-828678741#1" to="693885803#2"/>
    <vehicle id="veh86" type="veh_passenger" depart="220.01" departLane="best">
        <route edges="693885802#3 695030266 1279915895#1 408161670#0 408161670#1 408161670#2 408161670#3 408161670#4 408161670#5 408161670#6 408161670#8 408161670#9 408161670#10 408161670#11 408161670#12"/>
    </vehicle>
    <vehicle id="motorcycle29" type="motorcycle_motorcycle" depart="222.56" departLane="best" departSpeed="max">
        <route edges="-696756023 -295386152#7 -295386152#6 -295386152#4 -295386152#3 -295386152#2"/>
    </vehicle>
    <vehicle id="veh87" type="veh_passenger" depart="222.56" departLane="best">
        <route edges="828678744 -118575975#4 -118575975#3 -118575975#2 -118575975#1 -118575975#0 118575972#1 689583179#1 689583179#2 689583179#4 689583179#5 1096471623#0"/>
    </vehicle>
    <vehicle id="veh88" type="veh_passenger" depart="225.12" departLane="best">
        <route edges="E0 695025562#1 695025559 693885802#0 693885802#1 693885802#2 693885802#3 295386152#0 295386152#1 295386152#2 295386152#3 295386152#4 295386152#6 295386152#7 295386152#8"/>
    </vehicle>
    <person id="ped43" type="ped_pedestrian" depart="226.37">
        <walk edges="E3 693416739#0.11 1204196244#1 1204196245#1 295386168 295128797 1204196250#0 1204196250#1 1204196251#1 1204196251#0 1380613829#1"/>
    </person>
    <vehicle id="veh89" type="veh_passenger" depart="227.68" departLane="best" departSpeed="max">
        <route edges="-828678741#1 -828678741#0 118575975#3 118575975#4 118575975#5 118575975#6 295386152#1 295386152#2 295386152#3 698936203#2 698936203#3 1279915895#1 408161670#0 408161670#1 408161670#2 408161670#3 408161670#4 408161670#5"/>
    </vehicle>
    <trip id="bike61" type="bike_bicycle" depart="227.76" departLane="best" from="694829084#1" to="408161670#3"/>
    <vehicle id="veh90" type="veh_passenger" depart="230.24" departLane="best" departSpeed="max">
        <route edges="694830396 694830397 694830397.22 695025562#1 1096471623#0 695511482#4 35950897#2 35950897#3"/>
    </vehicle>
    <trip id="bike62" type="bike_bicycle" depart="231.49" departLane="best" from="-118575972#2" to="118575975#4"/>
    <trip id="bike63" type="bike_bicycle" depart="235.22" departLane="best" from="-118575975#4" to="828678850#1"/>
    <vehicle id="veh92" type="veh_passenger" depart="235.35" departLane="best">
        <route edges="-118575972#2 118575975#0 118575975#1 118575975#2 118575975#3 118575975#4 118575975#5 118575975#6 295386152#1 295386152#2 828678746"/>
    </vehicle>
    <vehicle id="veh93" type="veh_passenger" depart="237.91" departLane="best" departSpeed="max">
        <route edges="302751284 694829084#1 E0 695025562#1 695025559 693885802#0 693885802#1 693885802#2 693885802#3 295386152#0 -118575975#6 -118575975#5 -118575975#4 -118575975#3 -118575975#2 -641423230"/>
    </vehicle>
    <vehicle id="veh94" type="veh_passenger" depart="240.47" departLane="best">
        <route edges="295386152#1 295386152#2 295386152#3 698936203#2 698936203#3 295128790#5 295128790#6 295128790#7 295128790#8 295128790#9 295128790#10 693885804#1 693885804#1.60 779462187#1.4 779462187#1.9"/>
    </vehicle>
    <trip id="bike65" type="bike_bicycle" depart="242.69" departLane="best" departSpeed="max" from="-828678743" to="295386152#2"/>
    <vehicle id="motorcycle32" type="motorcycle_motorcycle" depart="245.59" departLane="best">
        <route edges="695040105#0 695040105#1 695040105#2 695040102#0 695040102#1"/>
    </vehicle>
    <trip id="bike66" type="bike_bicycle" depart="246.43" departLane="best" departSpeed="max" from="695512891" to="828678896"/>
    <vehicle id="veh97" type="veh_passenger" depart="248.15" departLane="best" departSpeed="max">
        <route edges="-828678743 118575975#4 118575975#5 118575975#6 295386152#1 295386152#2 295386152#3 698936203#2 698936203#3 1279915895#1 408161670#0 408161670#1 408161670#2 408161670#3"/>
    </vehicle>
    <trip id="bike67" type="bike_bicycle" depart="250.16" departLane="best" from="-372467078#1" to="372469389#0"/>
    <person id="ped48" type="ped_pedestrian" depart="252.69">