<?xml version="1.0" encoding="UTF-8"?>

<!-- generated on 2025-05-21 13:32:54.231536 by randomTrips.py v1_22_0+0002-63e50f52594
<configuration>
    <net-file value="osm.net.xml.gz"/>
    <output-trip-file value="osm.passenger.trips.xml"/>
    <route-file value="osm.passenger.rou.xml"/>
    <prefix value="veh"/>
    <trip-attributes value="departLane=&quot;best&quot;"/>
    <fringe-start-attributes value="departSpeed=&quot;max&quot;"/>
    <vehicle-class value="passenger"/>
    <lanes value="True"/>
    <fringe-factor value="5"/>
    <allow-fringe.min-length value="10000.0"/>
    <via-edge-types value="highway.motorway,highway.motorway_link,highway.trunk_link,highway.primary_link,highway.secondary_link,highway.tertiary_link"/>
    <min-distance value="300.0"/>
    <min-distance.fringe value="100.0"/>
    <remove-loops value="True"/>
    <validate value="True"/>
    <insertion-density value="120.0"/>
</configuration>
-->

<!-- generated on 2025-05-21 13:32:54 by Eclipse SUMO duarouter Version 1.22.0
<duarouterConfiguration xmlns:xsi="http://www.w3.org/2001/XMLSchema-instance" xsi:noNamespaceSchemaLocation="http://sumo.dlr.de/xsd/duarouterConfiguration.xsd">

    <input>
        <net-file value="osm.net.xml.gz"/>
        <route-files value="osm.passenger.trips.xml"/>
    </input>

    <output>
        <output-file value="osm.passenger.trips.xml.tmp"/>
        <alternatives-output value="NUL"/>
        <write-trips value="true"/>
    </output>

    <processing>
        <remove-loops value="true"/>
    </processing>

    <time>
        <begin value="0.0"/>
        <end value="3600.0"/>
    </time>

    <report>
        <no-warnings value="true"/>
        <ignore-errors value="true"/>
        <no-step-log value="true"/>
    </report>

</duarouterConfiguration>
-->

<routes xmlns:xsi="http://www.w3.org/2001/XMLSchema-instance" xsi:noNamespaceSchemaLocation="http://sumo.dlr.de/xsd/routes_file.xsd">
    <vType id="veh_passenger" vClass="passenger"/>
    <trip id="veh0" type="veh_passenger" depart="0.00" departLane="best" from="295128790#5" to="295128790#8"/>
    <trip id="veh2" type="veh_passenger" depart="5.12" departLane="best" departSpeed="max" from="118575972#0" to="693416739#0"/>
    <trip id="veh3" type="veh_passenger" depart="7.67" departLane="best" departSpeed="max" from="118575972#0" to="693885803#0"/>
    <trip id="veh4" type="veh_passenger" depart="10.23" departLane="best" from="695040102#1" to="-118575972#0"/>
    <trip id="veh5" type="veh_passenger" depart="12.79" departLane="best" from="828678749#0" to="372467078#1"/>
    <trip id="veh6" type="veh_passenger" depart="15.35" departLane="best" departSpeed="max" from="-696756023" to="-828678745#0"/>
    <trip id="veh7" type="veh_passenger" depart="17.91" departLane="best" departSpeed="max" from="695510006" to="693885803#2"/>
    <trip id="veh8" type="veh_passenger" depart="20.47" departLane="best" departSpeed="max" from="302751284" to="693416739#1"/>
    <trip id="veh9" type="veh_passenger" depart="23.02" departLane="best" from="695040105#2" to="693885803#6"/>
    <trip id="veh12" type="veh_passenger" depart="30.70" departLane="best" from="-118575975#0" to="35950897#2"/>
    <trip id="veh13" type="veh_passenger" depart="33.26" departLane="best" from="695040102#0" to="295128790#9"/>
    <trip id="veh14" type="veh_passenger" depart="35.81" departLane="best" from="693885802#2" to="408161670#0"/>
    <trip id="veh15" type="veh_passenger" depart="38.37" departLane="best" departSpeed="max" from="302751284" to="295128790#6"/>
    <trip id="veh16" type="veh_passenger" depart="40.93" departLane="best" departSpeed="max" from="-828678747" to="408161670#10"/>
    <trip id="veh18" type="veh_passenger" depart="46.05" departLane="best" departSpeed="max" from="695510006" to="35950897#3"/>
    <trip id="veh21" type="veh_passenger" depart="53.72" departLane="best" departSpeed="max" from="689583179#0" to="295386152#8"/>
    <trip id="veh22" type="veh_passenger" depart="56.28" departLane="best" from="695025562#1" to="408161670#3"/>
    <trip id="veh23" type="veh_passenger" depart="58.84" departLane="best" departSpeed="max" from="-404718839" to="408161670#10"/>
    <trip id="veh25" type="veh_passenger" depart="63.96" departLane="best" from="295128790#2" to="693885804#1"/>
    <trip id="veh26" type="veh_passenger" depart="66.51" departLane="best" departSpeed="max" from="-828678742" to="408161670#5"/>
    <trip id="veh27" type="veh_passenger" depart="69.07" departLane="best" from="118575972#1" to="35950897#3"/>
    <trip id="veh30" type="veh_passenger" depart="76.75" departLane="best" departSpeed="max" from="-696756023" to="689583179#5"/>
    <trip id="veh31" type="veh_passenger" depart="79.30" departLane="best" departSpeed="max" from="-695027208" to="695040105#3"/>
    <trip id="veh32" type="veh_passenger" depart="81.86" departLane="best" from="694830397" to="118573606#10"/>
    <trip id="veh35" type="veh_passenger" depart="89.54" departLane="best" departSpeed="max" from="689583179#0" to="695030266"/>
    <trip id="veh39" type="veh_passenger" depart="99.77" departLane="best" departSpeed="max" from="118575972#0" to="118573606#3"/>
    <trip id="veh40" type="veh_passenger" depart="102.33" departLane="best" from="-828678741#0" to="408161670#4"/>
    <trip id="veh42" type="veh_passenger" depart="107.44" departLane="best" from="118573606#0" to="408161670#8"/>
    <trip id="veh45" type="veh_passenger" depart="115.12" departLane="best" departSpeed="max" from="689583179#0" to="295386152#6"/>
    <trip id="veh46" type="veh_passenger" depart="117.68" departLane="best" from="E0" to="828678746"/>
    <trip id="veh48" type="veh_passenger" depart="122.79" departLane="best" departSpeed="max" from="302751284" to="E2"/>
    <trip id="veh50" type="veh_passenger" depart="127.91" departLane="best" from="828678749#0" to="E4"/>
    <trip id="veh51" type="veh_passenger" depart="130.47" departLane="best" departSpeed="max" from="-828678747" to="35950897#3"/>
    <trip id="veh52" type="veh_passenger" depart="133.03" departLane="best" departSpeed="max" from="689583179#0" to="695040105#1"/>
    <trip id="veh54" type="veh_passenger" depart="138.14" departLane="best" from="695040102#0" to="295128790#10"/>
    <trip id="veh57" type="veh_passenger" depart="145.82" departLane="best" from="118575975#5" to="408161670#12"/>
    <trip id="veh58" type="veh_passenger" depart="148.38" departLane="best" departSpeed="max" from="-695027208" to="408161670#9"/>
    <trip id="veh60" type="veh_passenger" depart="153.49" departLane="best" departSpeed="max" from="302751284" to="-118575975#4"/>
    <trip id="veh63" type="veh_passenger" depart="161.17" departLane="best" from="698936203#3" to="35950897#3"/>
    <trip id="veh65" type="veh_passenger" depart="166.28" departLane="best" departSpeed="max" from="-828678743" to="1096471623#0"/>
    <trip id="veh66" type="veh_passenger" depart="168.84" departLane="best" from="295128790#2" to="693885803#3"/>
    <trip id="veh67" type="veh_passenger" depart="171.40" departLane="best" from="694829084#1" to="295128790#5"/>
    <trip id="veh68" type="veh_passenger" depart="173.96" departLane="best" from="693885802#2" to="295386152#8"/>
    <trip id="veh72" type="veh_passenger" depart="184.19" departLane="best" from="-118575975#0" to="695511482#4"/>
    <trip id="veh73" type="veh_passenger" depart="186.75" departLane="best" from="693885802#2" to="295386152#8"/>
    <trip id="veh75" type="veh_passenger" depart="191.87" departLane="best" departSpeed="max" from="698936203#0" to="693416739#1"/>
    <trip id="veh77" type="veh_passenger" depart="196.98" departLane="best" departSpeed="max" from="-828678746" to="118573606#10"/>
    <trip id="veh80" type="veh_passenger" depart="204.66" departLane="best" from="695040102#1" to="828678741#1"/>
    <trip id="veh81" type="veh_passenger" depart="207.21" departLane="best" from="695040102#1" to="302739240#0"/>
    <trip id="veh82" type="veh_passenger" depart="209.77" departLane="best" from="695025562#1" to="-828678745#1"/>
    <trip id="veh83" type="veh_passenger" depart="212.33" departLane="best" departSpeed="max" from="695510006" to="779462187#1.9"/>
    <trip id="veh84" type="veh_passenger" depart="214.89" departLane="best" departSpeed="max" from="118575972#0" to="779462187#1.9"/>
    <trip id="veh86" type="veh_passenger" depart="220.01" departLane="best" from="693885802#3" to="408161670#12"/>
    <trip id="veh87" type="veh_passenger" depart="222.56" departLane="best" from="828678744" to="1096471623#0"/>
    <trip id="veh88" type="veh_passenger" depart="225.12" departLane="best" from="E0" to="295386152#8"/>
    <trip id="veh89" type="veh_passenger" depart="227.68" departLane="best" departSpeed="max" from="-828678741#1" to="408161670#5"/>
    <trip id="veh90" type="veh_passenger" depart="230.24" departLane="best" departSpeed="max" from="694830396" to="35950897#3"/>
    <trip id="veh92" type="veh_passenger" depart="235.35" departLane="best" from="-118575972#2" to="828678746"/>
    <trip id="veh93" type="veh_passenger" depart="237.91" departLane="best" departSpeed="max" from="302751284" to="-641423230"/>
    <trip id="veh94" type="veh_passenger" depart="240.47" departLane="best" from="295386152#1" to="779462187#1.9"/>
    <trip id="veh97" type="veh_passenger" depart="248.15" departLane="best" departSpeed="max" from="-828678743" to="408161670#3"/>
    <trip id="veh99" type="veh_passenger" depart="253.26" departLane="best" departSpeed="max" from="698936203#0" to="693885803#6"/>
    <trip id="veh100" type="veh_passenger" depart="255.82" departLane="best" from="295128790#8" to="693416739#1"/>
    <trip id="veh101" type="veh_passenger" depart="258.38" departLane="best" from="118575972#1" to="35950897#2"/>
    <trip id="veh105" type="veh_passenger" depart="268.61" departLane="best" from="695025562#1" to="1279915895#1"/>
    <trip id="veh106" type="veh_passenger" depart="271.17" departLane="best" departSpeed="max" from="-696756023" to="693416739#0.11"/>
    <trip id="veh107" type="veh_passenger" depart="273.73" departLane="best" from="693885802#2" to="372467078#0"/>
    <trip id="veh112" type="veh_passenger" depart="286.52" departLane="best" departSpeed="max" from="641397122" to="295386152#3"/>
    <trip id="veh114" type="veh_passenger" depart="291.64" departLane="best" departSpeed="max" from="-828678741#1" to="408161670#4"/>
    <trip id="veh115" type="veh_passenger" depart="294.19" departLane="best" from="295128790#1" to="779462187#1.9"/>
    <trip id="veh116" type="veh_passenger" depart="296.75" departLane="best" from="689583179#5" to="828678748"/>
    <trip id="veh117" type="veh_passenger" depart="299.31" departLane="best" departSpeed="max" from="698936203#0" to="693885803#5"/>
    <trip id="veh118" type="veh_passenger" depart="301.87" departLane="best" from="695040105#2" to="693416739#1"/>
    <trip id="veh121" type="veh_passenger" depart="309.54" departLane="best" from="295128790#2" to="35950897#3"/>
    <trip id="veh122" type="veh_passenger" depart="312.10" departLane="best" departSpeed="max" from="689583179#0" to="118573606#6"/>
    <trip id="veh127" type="veh_passenger" depart="324.89" departLane="best" departSpeed="max" from="302751284" to="-118575972#0"/>
    <trip id="veh128" type="veh_passenger" depart="327.45" departLane="best" departSpeed="max" from="302751284" to="695040105#2"/>
    <trip id="veh130" type="veh_passenger" depart="332.57" departLane="best" departSpeed="max" from="689583179#0" to="693885803#2"/>
    <trip id="veh133" type="veh_passenger" depart="340.24" departLane="best" from="295386152#2" to="693885804#1"/>
    <trip id="veh134" type="veh_passenger" depart="342.80" departLane="best" from="-828678744" to="408161670#9"/>
    <trip id="veh135" type="veh_passenger" depart="345.36" departLane="best" departSpeed="max" from="-295386152#8" to="408161670#10"/>
    <trip id="veh136" type="veh_passenger" depart="347.92" departLane="best" departSpeed="max" from="118575972#0" to="35950897#3"/>
    <trip id="veh137" type="veh_passenger" depart="350.47" departLane="best" from="694830397" to="408161670#10"/>
    <trip id="veh139" type="veh_passenger" depart="355.59" departLane="best" from="-118575975#6" to="693416739#1"/>
    <trip id="veh144" type="veh_passenger" depart="368.38" departLane="best" departSpeed="max" from="-828678748" to="693885803#3"/>
    <trip id="veh146" type="veh_passenger" depart="373.50" departLane="best" from="828678749#0" to="408161670#12"/>
    <trip id="veh147" type="veh_passenger" depart="376.06" departLane="best" from="694829084#1" to="-641423230"/>
    <trip id="veh148" type="veh_passenger" depart="378.61" departLane="best" departSpeed="max" from="-828678741#1" to="695511482#4"/>
    <trip id="veh149" type="veh_passenger" depart="381.17" departLane="best" departSpeed="max" from="695510006" to="693885803#2"/>
    <trip id="veh150" type="veh_passenger" depart="383.73" departLane="best" from="695025559" to="372467078#1"/>
    <trip id="veh151" type="veh_passenger" depart="386.29" departLane="best" departSpeed="max" from="641397122" to="372467078#1"/>
    <trip id="veh152" type="veh_passenger" depart="388.85" departLane="best" departSpeed="max" from="695510006" to="779462187#1.9"/>
    <trip id="veh154" type="veh_passenger" depart="393.96" departLane="best" from="295128790#2" to="779462187#1.4"/>
    <trip id="veh155" type="veh_passenger" depart="396.52" departLane="best" from="295128790#2" to="779462187#1.9"/>
    <trip id="veh158" type="veh_passenger" depart="404.20" departLane="best" departSpeed="max" from="302751284" to="-118575975#5"/>
    <trip id="veh159" type="veh_passenger" depart="406.75" departLane="best" departSpeed="max" from="695510006" to="295128790#10"/>
    <trip id="veh160" type="veh_passenger" depart="409.31" departLane="best" departSpeed="max" from="-696756023" to="695027208"/>
    <trip id="veh162" type="veh_passenger" depart="414.43" departLane="best" departSpeed="max" from="-696756023" to="295128790#8"/>
    <trip id="veh163" type="veh_passenger" depart="416.99" departLane="best" from="693885804#1" to="35950897#3"/>
    <trip id="veh164" type="veh_passenger" depart="419.55" departLane="best" departSpeed="max" from="689583179#0" to="408161670#4"/>
    <trip id="veh165" type="veh_passenger" depart="422.10" departLane="best" departSpeed="max" from="694830396" to="35950897#3"/>
    <trip id="veh166" type="veh_passenger" depart="424.66" departLane="best" from="295128790#1" to="1096471623#0"/>
    <trip id="veh167" type="veh_passenger" depart="427.22" departLane="best" from="118573606#1" to="1096471623#0"/>
    <trip id="veh168" type="veh_passenger" depart="429.78" departLane="best" departSpeed="max" from="689583179#0" to="695040105#3"/>
    <trip id="veh170" type="veh_passenger" depart="434.89" departLane="best" from="-828678749#1" to="118575972#1"/>
    <trip id="veh175" type="veh_passenger" depart="447.69" departLane="best" from="695040105#1" to="408161670#13"/>
    <trip id="veh177" type="veh_passenger" depart="452.80" departLane="best" from="689583179#1" to="35950897#3"/>
    <trip id="veh178" type="veh_passenger" depart="455.36" departLane="best" departSpeed="max" from="641423230" to="408161670#8"/>
    <trip id="veh181" type="veh_passenger" depart="463.03" departLane="best" departSpeed="max" from="694830396" to="828678748"/>
    <trip id="veh183" type="veh_passenger" depart="468.15" departLane="best" from="118575975#0" to="408161670#8"/>
    <trip id="veh184" type="veh_passenger" depart="470.71" departLane="best" from="689583179#5" to="35950897#2"/>
    <trip id="veh189" type="veh_passenger" depart="483.50" departLane="best" departSpeed="max" from="-828678748" to="35950897#3"/>
    <trip id="veh190" type="veh_passenger" depart="486.06" departLane="best" departSpeed="max" from="641397122" to="-641423230"/>
    <trip id="veh191" type="veh_passenger" depart="488.62" departLane="best" departSpeed="max" from="-295386152#8" to="408161670#5"/>
    <trip id="veh194" type="veh_passenger" depart="496.29" departLane="best" departSpeed="max" from="828678745#0" to="E4"/>
    <trip id="veh196" type="veh_passenger" depart="501.41" departLane="best" from="698936203#2" to="295128790#10"/>
    <trip id="veh197" type="veh_passenger" depart="503.97" departLane="best" departSpeed="max" from="641397122" to="-828678744"/>
    <trip id="veh198" type="veh_passenger" depart="506.52" departLane="best" from="698936203#3" to="693416739#1"/>
    <trip id="veh202" type="veh_passenger" depart="516.76" departLane="best" departSpeed="max" from="689583179#0" to="408161670#2"/>
    <trip id="veh204" type="veh_passenger" depart="521.87" departLane="best" departSpeed="max" from="694830396" to="693885803#9"/>
    <trip id="veh205" type="veh_passenger" depart="524.43" departLane="best" from="694830397" to="295128790#5"/>
    <trip id="veh209" type="veh_passenger" depart="534.66" departLane="best" departSpeed="max" from="-828678747" to="693416739#1"/>
    <trip id="veh211" type="veh_passenger" depart="539.78" departLane="best" from="695040105#2" to="689583179#5"/>
    <trip id="veh212" type="veh_passenger" depart="542.34" departLane="best" from="295128790#5" to="779462187#1.9"/>
    <trip id="veh214" type="veh_passenger" depart="547.46" departLane="best" departSpeed="max" from="689583179#0" to="408161670#10"/>
    <trip id="veh215" type="veh_passenger" depart="550.01" departLane="best" from="698936203#3" to="693416739#0"/>
    <trip id="veh217" type="veh_passenger" depart="555.13" departLane="best" from="295128790#6" to="35950897#3"/>
    <trip id="veh218" type="veh_passenger" depart="557.69" departLane="best" departSpeed="max" from="641397122" to="-118575975#0"/>
    <trip id="veh219" type="veh_passenger" depart="560.25" departLane="best" departSpeed="max" from="689583179#0" to="372467078#1"/>
    <trip id="veh221" type="veh_passenger" depart="565.36" departLane="best" from="694830397.22" to="295386152#2"/>
    <trip id="veh222" type="veh_passenger" depart="567.92" departLane="best" from="-295386152#7" to="693416739#0"/>
    <trip id="veh223" type="veh_passenger" depart="570.48" departLane="best" departSpeed="max" from="689583179#0" to="408161670#9"/>
    <trip id="veh224" type="veh_passenger" depart="573.04" departLane="best" departSpeed="max" from="694830396" to="408161670#2"/>
    <trip id="veh227" type="veh_passenger" depart="580.71" departLane="best" departSpeed="max" from="695510006" to="779462187#1.9"/>
    <trip id="veh228" type="veh_passenger" depart="583.27" departLane="best" from="694829084#1" to="695040105#2"/>
    <trip id="veh230" type="veh_passenger" depart="588.39" departLane="best" from="698936203#3" to="E4"/>
    <trip id="veh231" type="veh_passenger" depart="590.94" departLane="best" departSpeed="max" from="694830396" to="408161670#5"/>
    <trip id="veh232" type="veh_passenger" depart="593.50" departLane="best" departSpeed="max" from="-828678746" to="693416739#1"/>
    <trip id="veh234" type="veh_passenger" depart="598.62" departLane="best" departSpeed="max" from="695510006" to="693885803#6"/>
    <trip id="veh235" type="veh_passenger" depart="601.18" departLane="best" departSpeed="max" from="-828678746" to="408161670#9"/>
    <trip id="veh237" type="veh_passenger" depart="606.29" departLane="best" departSpeed="max" from="-828678747" to="408161670#6"/>
    <trip id="veh238" type="veh_passenger" depart="608.85" departLane="best" from="693885802#3" to="408161670#4"/>
    <trip id="veh239" type="veh_passenger" depart="611.41" departLane="best" from="295128790#1" to="779462187#1.9"/>
    <trip id="veh243" type="veh_passenger" depart="621.64" departLane="best" departSpeed="max" from="-295386152#8" to="693885803#3"/>
    <trip id="veh244" type="veh_passenger" depart="624.20" departLane="best" departSpeed="max" from="641397122" to="828678743"/>
    <trip id="veh246" type="veh_passenger" depart="629.32" departLane="best" departSpeed="max" from="694830396" to="828678741#0"/>
    <trip id="veh248" type="veh_passenger" depart="634.43" departLane="best" departSpeed="max" from="-828678748" to="118573606#3"/>
    <trip id="veh249" type="veh_passenger" depart="636.99" departLane="best" from="695040105#1" to="689583179#4"/>
    <trip id="veh250" type="veh_passenger" depart="639.55" departLane="best" from="E0" to="118573606#8"/>
    <trip id="veh253" type="veh_passenger" depart="647.23" departLane="best" departSpeed="max" from="689583179#0" to="828678746"/>
    <trip id="veh254" type="veh_passenger" depart="649.78" departLane="best" departSpeed="max" from="118575972#0" to="-372467078#0"/>
    <trip id="veh255" type="veh_passenger" depart="652.34" departLane="best" from="-828678744" to="408161670#8"/>
    <trip id="veh257" type="veh_passenger" depart="657.46" departLane="best" departSpeed="max" from="694830396" to="-118575975#2"/>
    <trip id="veh259" type="veh_passenger" depart="662.57" departLane="best" departSpeed="max" from="641397122" to="408161670#13"/>
    <trip id="veh260" type="veh_passenger" depart="665.13" departLane="best" departSpeed="max" from="302751284" to="408161670#6"/>
    <trip id="veh261" type="veh_passenger" depart="667.69" departLane="best" departSpeed="max" from="828678745#0" to="779462187#1.9"/>
    <trip id="veh262" type="veh_passenger" depart="670.25" departLane="best" departSpeed="max" from="302751284" to="408161670#12"/>
    <trip id="veh263" type="veh_passenger" depart="672.81" departLane="best" from="695025562#1" to="295386152#3"/>
    <trip id="veh264" type="veh_passenger" depart="675.37" departLane="best" departSpeed="max" from="-695027208" to="695040105#3"/>
    <trip id="veh266" type="veh_passenger" depart="680.48" departLane="best" departSpeed="max" from="695510006" to="35950897#3"/>
    <trip id="veh267" type="veh_passenger" depart="683.04" departLane="best" from="-118575975#0" to="779462187#1.9"/>
    <trip id="veh268" type="veh_passenger" depart="685.60" departLane="best" departSpeed="max" from="-828678746" to="118573606#12"/>
    <trip id="veh269" type="veh_passenger" depart="688.16" departLane="best" from="-118575975#4" to="35950897#3"/>
    <trip id="veh270" type="veh_passenger" depart="690.71" departLane="best" departSpeed="max" from="641423230" to="408161670#9"/>
    <trip id="veh271" type="veh_passenger" depart="693.27" departLane="best" from="E0" to="-372467078#0"/>
    <trip id="veh272" type="veh_passenger" depart="695.83" departLane="best" from="695040102#0" to="693885803#3"/>
    <trip id="veh274" type="veh_passenger" depart="700.95" departLane="best" departSpeed="max" from="689583179#0" to="408161670#8"/>
    <trip id="veh277" type="veh_passenger" depart="708.62" departLane="best" from="302739240#2" to="408161670#8"/>
    <trip id="veh280" type="veh_passenger" depart="716.30" departLane="best" departSpeed="max" from="302751284" to="-118575975#2"/>
    <trip id="veh281" type="veh_passenger" depart="718.86" departLane="best" from="698936203#3" to="-372467078#0"/>
    <trip id="veh282" type="veh_passenger" depart="721.41" departLane="best" from="-828678741#0" to="695040105#0"/>
    <trip id="veh283" type="veh_passenger" depart="723.97" departLane="best" from="698936203#3" to="693416739#1"/>
    <trip id="veh284" type="veh_passenger" depart="726.53" departLane="best" from="302739240#0" to="118573606#0"/>
    <trip id="veh285" type="veh_passenger" depart="729.09" departLane="best" departSpeed="max" from="302751284" to="695040105#3"/>
    <trip id="veh287" type="veh_passenger" depart="734.20" departLane="best" from="695040105#1" to="693885803#5"/>
    <trip id="veh288" type="veh_passenger" depart="736.76" departLane="best" from="295128790#2" to="295128790#10"/>
    <trip id="veh291" type="veh_passenger" depart="744.44" departLane="best" departSpeed="max" from="302751284" to="695027208"/>
    <trip id="veh292" type="veh_passenger" depart="747.00" departLane="best" departSpeed="max" from="-828678747" to="693885803#6"/>
    <trip id="veh296" type="veh_passenger" depart="757.23" departLane="best" from="-118575975#2" to="35950897#3"/>
    <trip id="veh297" type="veh_passenger" depart="759.79" departLane="best" from="295128790#1" to="35950897#3"/>
    <trip id="veh298" type="veh_passenger" depart="762.34" departLane="best" from="118575975#2" to="695040105#1"/>
    <trip id="veh299" type="veh_passenger" depart="764.90" departLane="best" departSpeed="max" from="-828678748" to="408161670#10"/>
    <trip id="veh300" type="veh_passenger" depart="767.46" departLane="best" from="695040105#3" to="779462187#1.4"/>
    <trip id="veh301" type="veh_passenger" depart="770.02" departLane="best" departSpeed="max" from="-295386152#8" to="-118575975#1"/>
    <trip id="veh302" type="veh_passenger" depart="772.58" departLane="best" from="698936203#3" to="779462187#1.9"/>
    <trip id="veh305" type="veh_passenger" depart="780.25" departLane="best" from="302739240#2" to="35950897#3"/>
    <trip id="veh306" type="veh_passenger" depart="782.81" departLane="best" departSpeed="max" from="-828678748" to="693416739#0.11"/>
    <trip id="veh307" type="veh_passenger" depart="785.37" departLane="best" departSpeed="max" from="698936203#0" to="404718839"/>
    <trip id="veh310" type="veh_passenger" depart="793.04" departLane="best" departSpeed="max" from="694830396" to="695040105#3"/>
    <trip id="veh311" type="veh_passenger" depart="795.60" departLane="best" departSpeed="max" from="-695027208" to="408161670#6"/>
    <trip id="veh312" type="veh_passenger" depart="798.16" departLane="best" from="295386152#0" to="408161670#8"/>
    <trip id="veh313" type="veh_passenger" depart="800.72" departLane="best" departSpeed="max" from="695510006" to="693885803#6"/>
    <trip id="veh314" type="veh_passenger" depart="803.28" departLane="best" departSpeed="max" from="641397122" to="689583179#1"/>
    <trip id="veh316" type="veh_passenger" depart="808.39" departLane="best" departSpeed="max" from="698936203#0" to="408161670#8"/>
    <trip id="veh317" type="veh_passenger" depart="810.95" departLane="best" from="695040102#1" to="693885804#1.60"/>
    <trip id="veh318" type="veh_passenger" depart="813.51" departLane="best" from="-295386152#4" to="689583179#2"/>
    <trip id="veh319" type="veh_passenger" depart="816.07" departLane="best" departSpeed="max" from="-828678746" to="-372467078#0"/>
    <trip id="veh320" type="veh_passenger" depart="818.63" departLane="best" departSpeed="max" from="641397122" to="295128790#1"/>
    <trip id="veh322" type="veh_passenger" depart="823.74" departLane="best" departSpeed="max" from="698936203#0" to="828678741#1"/>
    <trip id="veh324" type="veh_passenger" depart="828.86" departLane="best" from="-828678741#0" to="35950897#3"/>
    <trip id="veh328" type="veh_passenger" depart="839.09" departLane="best" from="693885802#3" to="408161670#3"/>
    <trip id="veh329" type="veh_passenger" depart="841.65" departLane="best" departSpeed="max" from="302751284" to="408161670#0"/>
    <trip id="veh330" type="veh_passenger" depart="844.21" departLane="best" from="118575975#0" to="118573606#6"/>
    <trip id="veh331" type="veh_passenger" depart="846.77" departLane="best" departSpeed="max" from="-828678741#1" to="695511482#4"/>
    <trip id="veh333" type="veh_passenger" depart="851.88" departLane="best" from="-295386152#7" to="372467078#1"/>
    <trip id="veh334" type="veh_passenger" depart="854.44" departLane="best" from="694830397" to="118573606#12"/>
    <trip id="veh335" type="veh_passenger" depart="857.00" departLane="best" departSpeed="max" from="302751284" to="-118575975#5"/>
    <trip id="veh336" type="veh_passenger" depart="859.56" departLane="best" from="695040105#2" to="695511482#4"/>
    <trip id="veh338" type="veh_passenger" depart="864.67" departLane="best" departSpeed="max" from="694830396" to="408161670#8"/>
    <trip id="veh339" type="veh_passenger" depart="867.23" departLane="best" departSpeed="max" from="689583179#0" to="35950897#3"/>
    <trip id="veh340" type="veh_passenger" depart="869.79" departLane="best" from="695040102#1" to="689583179#1"/>
    <trip id="veh341" type="veh_passenger" depart="872.35" departLane="best" departSpeed="max" from="828678745#0" to="E2"/>
    <trip id="veh343" type="veh_passenger" depart="877.46" departLane="best" departSpeed="max" from="302751284" to="693416739#1"/>
    <trip id="veh344" type="veh_passenger" depart="880.02" departLane="best" from="695030266" to="118573606#6"/>
    <trip id="veh345" type="veh_passenger" depart="882.58" departLane="best" from="295128790#1" to="693885804#1"/>
    <trip id="veh346" type="veh_passenger" depart="885.14" departLane="best" departSpeed="max" from="695510006" to="693416739#1"/>
    <trip id="veh348" type="veh_passenger" depart="890.25" departLane="best" departSpeed="max" from="118575972#0" to="408161670#8"/>
    <trip id="veh349" type="veh_passenger" depart="892.81" departLane="best" departSpeed="max" from="302751284" to="-118575975#4"/>
    <trip id="veh351" type="veh_passenger" depart="897.93" departLane="best" departSpeed="max" from="302751284" to="-118575975#4"/>
    <trip id="veh353" type="veh_passenger" depart="903.05" departLane="best" from="-828678745#1" to="35950897#2"/>
    <trip id="veh354" type="veh_passenger" depart="905.60" departLane="best" from="695040105#2" to="695025559"/>
    <trip id="veh356" type="veh_passenger" depart="910.72" departLane="best" from="695040105#3" to="693416739#1"/>
    <trip id="veh357" type="veh_passenger" depart="913.28" departLane="best" departSpeed="max" from="-828678742" to="35950897#2"/>
    <trip id="veh358" type="veh_passenger" depart="915.84" departLane="best" departSpeed="max" from="698936203#0" to="693885803#11"/>
    <trip id="veh359" type="veh_passenger" depart="918.40" departLane="best" from="118575975#6" to="118573606#9"/>
    <trip id="veh361" type="veh_passenger" depart="923.51" departLane="best" from="118575975#5" to="408161670#3"/>
    <trip id="veh366" type="veh_passenger" depart="936.30" departLane="best" from="695025562#1" to="372467078#1"/>