<?xml version="1.0" encoding="UTF-8"?>

<!-- generated on 2025-05-15 12:06:49.089046 by randomTrips.py v1_22_0+0002-63e50f52594
<configuration>
    <net-file value="osm.net.xml.gz"/>
    <output-trip-file value="osm.motorcycle.trips.xml"/>
    <route-file value="osm.motorcycle.rou.xml"/>
    <prefix value="motorcycle"/>
    <trip-attributes value="departLane=&quot;best&quot;"/>
    <fringe-start-attributes value="departSpeed=&quot;max&quot;"/>
    <vehicle-class value="motorcycle"/>
    <fringe-factor value="2"/>
    <vclass value="motorcycle"/>
    <via-edge-types value="highway.motorway,highway.motorway_link,highway.trunk_link,highway.primary_link,highway.secondary_link,highway.tertiary_link"/>
    <max-distance value="1200.0"/>
    <remove-loops value="True"/>
    <validate value="True"/>
    <insertion-density value="40.0"/>
</configuration>
-->

<!-- generated on 2025-05-15 12:06:48 by Eclipse SUMO duarouter Version 1.22.0
<duarouterConfiguration xmlns:xsi="http://www.w3.org/2001/XMLSchema-instance" xsi:noNamespaceSchemaLocation="http://sumo.dlr.de/xsd/duarouterConfiguration.xsd">

    <input>
        <net-file value="osm.net.xml.gz"/>
        <route-files value="osm.motorcycle.trips.xml"/>
    </input>

    <output>
        <output-file value="osm.motorcycle.rou.xml"/>
        <alternatives-output value="NUL"/>
    </output>

    <processing>
        <remove-loops value="true"/>
    </processing>

    <time>
        <begin value="0.0"/>
        <end value="3600.0"/>
    </time>

    <report>
        <no-warnings value="true"/>
        <ignore-errors value="true"/>
        <no-step-log value="true"/>
    </report>

</duarouterConfiguration>
-->

<routes xmlns:xsi="http://www.w3.org/2001/XMLSchema-instance" xsi:noNamespaceSchemaLocation="http://sumo.dlr.de/xsd/routes_file.xsd">
    <vType id="motorcycle_motorcycle" vClass="motorcycle"/>
    <vehicle id="motorcycle0" type="motorcycle_motorcycle" depart="0.00" departLane="best" departSpeed="max">
        <route edges="641423230 -118575975#1"/>
    </vehicle>
    <vehicle id="motorcycle2" type="motorcycle_motorcycle" depart="15.35" departLane="best">
        <route edges="693885803#3"/>
    </vehicle>
    <vehicle id="motorcycle3" type="motorcycle_motorcycle" depart="23.02" departLane="best" departSpeed="max">
        <route edges="698936203#0 698936203#1 -295386152#3 -295386152#2"/>
    </vehicle>
    <vehicle id="motorcycle5" type="motorcycle_motorcycle" depart="38.37" departLane="best">
        <route edges="118575975#5 118575975#6 295386152#1 295386152#2 295386152#3 698936203#2 698936203#3 1279915895#1 408161670#0 408161670#1"/>
    </vehicle>
    <vehicle id="motorcycle6" type="motorcycle_motorcycle" depart="46.05" departLane="best">
        <route edges="-118575975#3 -118575975#2 -118575975#1 -118575975#0 118575972#1 689583179#1 689583179#2 689583179#4 689583179#5 1096471623#0"/>
    </vehicle>
    <vehicle id="motorcycle7" type="motorcycle_motorcycle" depart="53.72" departLane="best" departSpeed="max">
        <route edges="689583179#0 689583179#1 689583179#2 689583179#4 302739240#0 302739240#1 302739240#2 302739240#3 693885802#2 693885802#3 695030266 1279915895#1 408161670#0 408161670#1 408161670#2 408161670#3"/>
    </vehicle>
    <vehicle id="motorcycle8" type="motorcycle_motorcycle" depart="61.40" departLane="best">
        <route edges="-828678745#1 828678744 -118575975#4 -118575975#3 -118575975#2 -118575975#1 -118575975#0 118575972#1 689583179#1 689583179#2"/>
    </vehicle>
    <vehicle id="motorcycle9" type="motorcycle_motorcycle" depart="69.07" departLane="best">
        <route edges="694830397.22 695025562#1 695025559 693885802#0 693885802#1 693885802#2 693885802#3 295386152#0 -118575975#6 -118575975#5 -118575975#4 -118575975#3 -118575975#2 -118575975#1 -118575975#0 -118575972#0"/>
    </vehicle>
    <vehicle id="motorcycle10" type="motorcycle_motorcycle" depart="76.75" departLane="best">
        <route edges="694830397.22 695025562#1 693885803#0 693885803#2 693885803#3 693885803#5 693885803#6 693885803#8 693885803#9"/>
    </vehicle>
    <vehicle id="motorcycle11" type="motorcycle_motorcycle" depart="84.42" departLane="best" departSpeed="max">
        <route edges="118575972#0 118575975#0 118575975#1 118575975#2 828678741#0"/>
    </vehicle>
    <vehicle id="motorcycle12" type="motorcycle_motorcycle" depart="92.10" departLane="best">
        <route edges="828678749#0 828678749#1 698936203#3 295128790#5"/>
    </vehicle>
    <vehicle id="motorcycle13" type="motorcycle_motorcycle" depart="99.77" departLane="best">
        <route edges="-295386152#7 -295386152#6 -295386152#4"/>
    </vehicle>
    <vehicle id="motorcycle14" type="motorcycle_motorcycle" depart="107.44" departLane="best">
        <route edges="695040105#1 695040105#2 695040102#0 828678749#1 698936203#3 295128790#5 295128790#6 295128790#7 295128790#8 295128790#9 295128790#10 693885804#1 693885804#1.60 693416739#0"/>
    </vehicle>
    <vehicle id="motorcycle15" type="motorcycle_motorcycle" depart="115.12" departLane="best">
        <route edges="694830397.22"/>
    </vehicle>
    <vehicle id="motorcycle17" type="motorcycle_motorcycle" depart="130.47" departLane="best">
        <route edges="118575975#4 118575975#5 118575975#6 295386152#1 295386152#2 295386152#3 698936203#2 698936203#3 1279915895#1 408161670#0 408161670#1 408161670#2 408161670#3 408161670#4"/>
    </vehicle>
    <vehicle id="motorcycle18" type="motorcycle_motorcycle" depart="138.14" departLane="best">
        <route edges="695040102#0 828678749#1 698936203#3 295128790#5 295128790#6 295128790#7 295128790#8 295128790#9 295128790#10 693885804#1 693885804#1.60 693416739#0 693416739#0.11 693416739#1"/>
    </vehicle>
    <vehicle id="motorcycle19" type="motorcycle_motorcycle" depart="145.82" departLane="best">
        <route edges="695040105#3 295128790#1 295128790#2 1279915895#1 408161670#0 408161670#1 408161670#2 408161670#3 408161670#4 408161670#5 408161670#6 408161670#8 408161670#9"/>
    </vehicle>
    <vehicle id="motorcycle20" type="motorcycle_motorcycle" depart="153.49" departLane="best">
        <route edges="693885802#1 693885802#2 693885802#3 295386152#0 -118575975#6 -118575975#5 -118575975#4"/>
    </vehicle>
    <vehicle id="motorcycle21" type="motorcycle_motorcycle" depart="161.17" departLane="best" departSpeed="max">
        <route edges="-828678746 -295386152#2 -295386152#1 -118575975#6 -118575975#5 -118575975#4 -118575975#3"/>
    </vehicle>
    <vehicle id="motorcycle22" type="motorcycle_motorcycle" depart="168.84" departLane="best">
        <route edges="-295386152#4 698936203#2 698936203#3 695040105#0 695040105#1 695040105#2 695040105#3 118573606#3"/>
    </vehicle>
    <vehicle id="motorcycle23" type="motorcycle_motorcycle" depart="176.52" departLane="best" departSpeed="max">
        <route edges="-295386152#8 -295386152#7 -295386152#6 -295386152#4 -295386152#3 -295386152#2 -295386152#1 -118575975#6 -118575975#5 -118575975#4 -118575975#3 -118575975#2 -118575975#1"/>
    </vehicle>
    <vehicle id="motorcycle24" type="motorcycle_motorcycle" depart="184.19" departLane="best" departSpeed="max">
        <route edges="641423230 118575975#2 118575975#3 118575975#4 118575975#5 118575975#6 295386152#1 295386152#2 295386152#3 698936203#2 698936203#3 295128790#5 295128790#6 295128790#7 295128790#8 295128790#9"/>
    </vehicle>
    <vehicle id="motorcycle25" type="motorcycle_motorcycle" depart="191.87" departLane="best">
        <route edges="118575975#3 118575975#4 118575975#5 118575975#6 295386152#1 295386152#2 295386152#3 295386152#4 295386152#6 118573606#0"/>
    </vehicle>
    <vehicle id="motorcycle27" type="motorcycle_motorcycle" depart="207.21" departLane="best" departSpeed="max">
        <route edges="689583179#0 689583179#1 689583179#2 689583179#4 E2 693416739#0.11"/>
    </vehicle>
    <vehicle id="motorcycle29" type="motorcycle_motorcycle" depart="222.56" departLane="best" departSpeed="max">
        <route edges="-696756023 -295386152#7 -295386152#6 -295386152#4 -295386152#3 -295386152#2"/>
    </vehicle>
    <vehicle id="motorcycle32" type="motorcycle_motorcycle" depart="245.59" departLane="best">
        <route edges="695040105#0 695040105#1 695040105#2 695040102#0 695040102#1"/>
    </vehicle>
    <vehicle id="motorcycle33" type="motorcycle_motorcycle" depart="253.26" departLane="best" departSpeed="max">
        <route edges="-828678746 -295386152#2 -295386152#1 -118575975#6 -118575975#5 -118575975#4 -118575975#3 -118575975#2"/>
    </vehicle>
    <vehicle id="motorcycle36" type="motorcycle_motorcycle" depart="276.29" departLane="best" departSpeed="max">
        <route edges="695510006 295128790#1 295128790#2 1279915895#1"/>
    </vehicle>
    <vehicle id="motorcycle37" type="motorcycle_motorcycle" depart="283.96" departLane="best" departSpeed="max">
        <route edges="689583179#0 689583179#1 689583179#2 689583179#4 302739240#0 302739240#1 302739240#2 302739240#3 693885802#2 693885802#3 295386152#0 295386152#1 295386152#2 295386152#3 295386152#4"/>
    </vehicle>
    <vehicle id="motorcycle39" type="motorcycle_motorcycle" depart="299.31" departLane="best">
        <route edges="-828678749#1 -828678749#0 118573606#1 118573606#3 118573606#4 118573606#6"/>
    </vehicle>
    <vehicle id="motorcycle44" type="motorcycle_motorcycle" depart="337.68" departLane="best">
        <route edges="-295386152#6 -295386152#4 -295386152#3 -295386152#2 -295386152#1 -118575975#6 -118575975#5 -118575975#4"/>
    </vehicle>
    <vehicle id="motorcycle45" type="motorcycle_motorcycle" depart="345.36" departLane="best" departSpeed="max">
        <route edges="-295386152#8 -295386152#7 -295386152#6 -295386152#4 -295386152#3 -295386152#2 -295386152#1 -118575975#6 -118575975#5 -118575975#4 -118575975#3 -118575975#2 -118575975#1 -118575975#0 118575972#1 689583179#1 689583179#2 689583179#4 689583179#5 695025559 693885802#0"/>
    </vehicle>
    <vehicle id="motorcycle46" type="motorcycle_motorcycle" depart="353.03" departLane="best" departSpeed="max">
        <route edges="694830396 694830397 694830397.22 695025562#1 695025559 693885802#0 693885802#1 693885802#2 693885802#3 295386152#0 295386152#1 295386152#2 295386152#3 295386152#4 295386152#6 295386152#7 295386152#8"/>
    </vehicle>
    <vehicle id="motorcycle47" type="motorcycle_motorcycle" depart="360.71" departLane="best">
        <route edges="295386152#1 295386152#2"/>
    </vehicle>
    <vehicle id="motorcycle49" type="motorcycle_motorcycle" depart="376.06" departLane="best">
        <route edges="E0 695025562#1 695025559 693885802#0 693885802#1 693885802#2 693885802#3 295386152#0 -118575975#6 -118575975#5 -118575975#4 -118575975#3 828678741#0 828678740"/>
    </vehicle>
    <vehicle id="motorcycle52" type="motorcycle_motorcycle" depart="399.08" departLane="best">
        <route edges="-828678749#1 695040102#1 -295386152#4 -295386152#3 -295386152#2 -295386152#1 -118575975#6 -118575975#5 -118575975#4 -118575975#3 828678741#0 828678740 302739240#2 302739240#3 693885802#2"/>
    </vehicle>
    <vehicle id="motorcycle54" type="motorcycle_motorcycle" depart="414.43" departLane="best">
        <route edges="295386152#0 295386152#1 828678748"/>
    </vehicle>
    <vehicle id="motorcycle56" type="motorcycle_motorcycle" depart="429.78" departLane="best">
        <route edges="302739240#1 302739240#2 302739240#3 693885802#2 693885802#3 295386152#0 -118575975#6 -828678745#1 -828678745#0"/>
    </vehicle>
    <vehicle id="motorcycle57" type="motorcycle_motorcycle" depart="437.45" departLane="best">
        <route edges="698936203#3 695040105#0 695040105#1 695040105#2 695040102#0 695040102#1 -295386152#4 -295386152#3 -295386152#2 -295386152#1 -118575975#6 -118575975#5 -118575975#4 -118575975#3 828678741#0 828678741#1"/>
    </vehicle>
    <vehicle id="motorcycle62" type="motorcycle_motorcycle" depart="475.83" departLane="best">
        <route edges="-118575972#2 118575975#0 118575975#1 118575975#2 118575975#3 118575975#4 118575975#5 118575975#6 295386152#1 295386152#2 295386152#3 698936203#2 698936203#3 295128790#5 295128790#6 295128790#7 295128790#8 295128790#9 295128790#10"/>
    </vehicle>
    <vehicle id="motorcycle63" type="motorcycle_motorcycle" depart="483.50" departLane="best">
        <route edges="118575975#2 118575975#3 118575975#4 118575975#5 118575975#6 295386152#1 295386152#2 828678746"/>
    </vehicle>
    <vehicle id="motorcycle67" type="motorcycle_motorcycle" depart="514.20" departLane="best">
        <route edges="-295386152#4 -295386152#3 -295386152#2 -295386152#1 -118575975#6 -118575975#5 -118575975#4 -118575975#3 -118575975#2 -118575975#1 -118575975#0 118575972#1 689583179#1 404718839"/>
    </vehicle>
    <vehicle id="motorcycle68" type="motorcycle_motorcycle" depart="521.87" departLane="best">
        <route edges="-295386152#2 -295386152#1 -295386152#0 695030266"/>
    </vehicle>
    <vehicle id="motorcycle70" type="motorcycle_motorcycle" depart="537.22" departLane="best">
        <route edges="295386152#4 -695040102#1 828678749#1 698936203#3 1279915895#1 408161670#0 408161670#1 408161670#2 408161670#3 408161670#4"/>
    </vehicle>
    <vehicle id="motorcycle71" type="motorcycle_motorcycle" depart="544.90" departLane="best">
        <route edges="-828678749#1 695040102#1 -295386152#4 -295386152#3 -295386152#2 -295386152#1 -118575975#6 -118575975#5 -118575975#4 -118575975#3 828678741#0 828678741#1"/>
    </vehicle>
    <vehicle id="motorcycle74" type="motorcycle_motorcycle" depart="567.92" departLane="best" departSpeed="max">
        <route edges="-828678743 118575975#4 118575975#5 118575975#6 295386152#1 295386152#2 295386152#3 698936203#2 698936203#3 1279915895#1"/>
    </vehicle>
    <vehicle id="motorcycle77" type="motorcycle_motorcycle" depart="590.94" departLane="best" departSpeed="max">
        <route edges="-404718839 689583179#2 689583179#4 302739240#0 302739240#1 302739240#2 302739240#3 693885802#2 693885802#3 695030266 695040105#0 695040105#1 695040105#2 695040105#3 118573606#3 118573606#4 118573606#6 118573606#8 118573606#9 118573606#10 118573606#12"/>
    </vehicle>
    <vehicle id="motorcycle78" type="motorcycle_motorcycle" depart="598.62" departLane="best" departSpeed="max">
        <route edges="118575972#0 118575972#1 689583179#1 689583179#2"/>
    </vehicle>
    <vehicle id="motorcycle79" type="motorcycle_motorcycle" depart="606.29" departLane="best" departSpeed="max">
        <route edges="-828678746 295386152#3 698936203#2 698936203#3 695040105#0 695040105#1 695040105#2 695040105#3 118573606#3 118573606#4 118573606#6 118573606#8 118573606#9 118573606#10"/>
    </vehicle>
    <vehicle id="motorcycle80" type="motorcycle_motorcycle" depart="613.97" departLane="best">
        <route edges="-295386152#2 -295386152#1 -118575975#6 -118575975#5 -118575975#4 -118575975#3 -118575975#2 -118575975#1 -118575975#0 118575972#1 689583179#1 689583179#2 689583179#4 689583179#5 695025559 693885802#0"/>
    </vehicle>
    <vehicle id="motorcycle81" type="motorcycle_motorcycle" depart="621.64" departLane="best" departSpeed="max">
        <route edges="-828678746 -295386152#2 -295386152#1 -118575975#6 -118575975#5 -118575975#4 828678743"/>
    </vehicle>
    <vehicle id="motorcycle83" type="motorcycle_motorcycle" depart="636.99" departLane="best" departSpeed="max">
        <route edges="-828678747 698936203#1 698936203#2 698936203#3 295128790#5 295128790#6 295128790#7 295128790#8 295128790#9 295128790#10 693885803#0 693885803#2"/>
    </vehicle>
    <vehicle id="motorcycle84" type="motorcycle_motorcycle" depart="644.67" departLane="best">
        <route edges="-118575975#5 -118575975#4 -118575975#3 -118575975#2 -641423230"/>
    </vehicle>
    <vehicle id="motorcycle85" type="motorcycle_motorcycle" depart="652.34" departLane="best">
        <route edges="828678744 118575975#5 118575975#6 295386152#1 295386152#2 295386152#3 698936203#2 698936203#3 1279915895#1 408161670#0 408161670#1 408161670#2 408161670#3 408161670#4 408161670#5 408161670#6 408161670#8"/>
    </vehicle>
    <vehicle id="motorcycle86" type="motorcycle_motorcycle" depart="660.02" departLane="best">
        <route edges="295386152#4 -695040102#1 828678749#1 698936203#3 695040105#0 695040105#1"/>
    </vehicle>
    <vehicle id="motorcycle87" type="motorcycle_motorcycle" depart="667.69" departLane="best">
        <route edges="694830397.22 695025562#1 695025559 693885802#0 693885802#1 693885802#2 693885802#3 295386152#0 295386152#1 295386152#2 295386152#3 698936203#2 -828678749#1 -828678749#0"/>
    </vehicle>
    <vehicle id="motorcycle88" type="motorcycle_motorcycle" depart="675.37" departLane="best">
        <route edges="-295386152#7 -295386152#6 -295386152#4 -295386152#3 -295386152#2 -295386152#1 -118575975#6 -118575975#5 -118575975#4 -118575975#3 -118575975#2 -118575975#1 -118575975#0 118575972#1 689583179#1 689583179#2 689583179#4 302739240#0 302739240#1"/>
    </vehicle>
    <vehicle id="motorcycle92" type="motorcycle_motorcycle" depart="706.06" departLane="best">
        <route edges="295128790#1 295128790#2 295128790#5"/>
    </vehicle>
    <vehicle id="motorcycle93" type="motorcycle_motorcycle" depart="713.74" departLane="best">
        <route edges="695040105#3 118573606#3 118573606#4 118573606#6 118573606#8"/>
    </vehicle>
    <vehicle id="motorcycle94" type="motorcycle_motorcycle" depart="721.41" departLane="best" departSpeed="max">
        <route edges="-828678742 -118575975#0 118575972#1 689583179#1 689583179#2 689583179#4 689583179#5 1096471623#0 695511482#4 35950897#2"/>
    </vehicle>
    <vehicle id="motorcycle96" type="motorcycle_motorcycle" depart="736.76" departLane="best" departSpeed="max">
        <route edges="-828678748 295386152#2 828678746"/>
    </vehicle>
    <vehicle id="motorcycle100" type="motorcycle_motorcycle" depart="767.46" departLane="best">
        <route edges="-828678749#1 695040102#1 -295386152#4 -295386152#3 828678746"/>
    </vehicle>
    <vehicle id="motorcycle101" type="motorcycle_motorcycle" depart="775.14" departLane="best">
        <route edges="695040105#1 695040105#2 695040102#0 695040102#1 -295386152#4 -295386152#3 -295386152#2 -295386152#1 -118575975#6 -118575975#5 -828678744"/>
    </vehicle>
    <vehicle id="motorcycle102" type="motorcycle_motorcycle" depart="782.81" departLane="best">
        <route edges="-295386152#7 118573606#0 118573606#1"/>
    </vehicle>
    <vehicle id="motorcycle104" type="motorcycle_motorcycle" depart="798.16" departLane="best">
        <route edges="-118575975#4 -118575975#3 -118575975#2 -118575975#1 -118575975#0 118575972#1 689583179#1 689583179#2 689583179#4 E2"/>
    </vehicle>
    <vehicle id="motorcycle105" type="motorcycle_motorcycle" depart="805.83" departLane="best">
        <route edges="828678749#1 698936203#3 695040105#0 695040105#1"/>
    </vehicle>
    <vehicle id="motorcycle106" type="motorcycle_motorcycle" depart="813.51" departLane="best">
        <route edges="-295386152#1 -118575975#6 -118575975#5 -118575975#4 -118575975#3 -118575975#2 -118575975#1 -118575975#0 118575972#1 689583179#1 689583179#2 689583179#4 302739240#0"/>
    </vehicle>
    <vehicle id="motorcycle107" type="motorcycle_motorcycle" depart="821.18" departLane="best">
        <route edges="828678749#0 828678749#1 698936203#3 295128790#5 295128790#6 295128790#7 295128790#8 295128790#9 295128790#10 693885804#1 E4"/>
    </vehicle>
    <vehicle id="motorcycle109" type="motorcycle_motorcycle" depart="836.53" departLane="best" departSpeed="max">
        <route edges="-696756023 -295386152#7 -295386152#6 -295386152#4 -295386152#3 -295386152#2 -295386152#1 -118575975#6 -118575975#5 -118575975#4"/>
    </vehicle>
    <vehicle id="motorcycle110" type="motorcycle_motorcycle" depart="844.21" departLane="best">
        <route edges="-828678749#1 695040102#1 -295386152#4 -295386152#3 -295386152#2 -295386152#1 -118575975#6 -118575975#5 -118575975#4 -118575975#3 -118575975#2 -118575975#1 -118575975#0 118575972#1 689583179#1"/>
    </vehicle>
    <vehicle id="motorcycle112" type="motorcycle_motorcycle" depart="859.56" departLane="best">
        <route edges="295386152#0 -118575975#6 -118575975#5 -118575975#4 -118575975#3 -118575975#2 -118575975#1 -118575975#0 118575972#1 689583179#1 689583179#2"/>
    </vehicle>
    <vehicle id="motorcycle113" type="motorcycle_motorcycle" depart="867.23" departLane="best">
        <route edges="302739240#1 -1255581684 -828678741#0 -118575975#2 -118575975#1 -118575975#0 118575972#1 689583179#1 689583179#2 689583179#4 689583179#5 693885804#1 693885804#1.60 779462187#1.4 779462187#1.9"/>
    </vehicle>
    <vehicle id="motorcycle114" type="motorcycle_motorcycle" depart="874.91" departLane="best" departSpeed="max">
        <route edges="-696756023 -295386152#7 118573606#0 828678749#0"/>
    </vehicle>
    <vehicle id="motorcycle115" type="motorcycle_motorcycle" depart="882.58" departLane="best">
        <route edges="-295386152#4 -295386152#3 -295386152#2 -295386152#1 -118575975#6 -828678745#1"/>
    </vehicle>
    <vehicle id="motorcycle117" type="motorcycle_motorcycle" depart="897.93" departLane="best" departSpeed="max">
        <route edges="-828678747 698936203#1 698936203#2 698936203#3 1279915895#1 408161670#0 408161670#1 408161670#2 408161670#3 408161670#4 408161670#5 408161670#6 408161670#8 408161670#9 408161670#10 408161670#11 408161670#12 408161670#13 -372467078#1 -372467078#0"/>
    </vehicle>
    <vehicle id="motorcycle118" type="motorcycle_motorcycle" depart="905.60" departLane="best" departSpeed="max">
        <route edges="698936203#0 698936203#1 698936203#2 698936203#3 695040105#0 695040105#1 695040105#2 695040105#3 118573606#3 118573606#4 118573606#6"/>
    </vehicle>
    <vehicle id="motorcycle123" type="motorcycle_motorcycle" depart="943.98" departLane="best" departSpeed="max">
        <route edges="-828678747 698936203#1 295386152#4"/>
    </vehicle>
    <vehicle id="motorcycle124" type="motorcycle_motorcycle" depart="951.65" departLane="best">
        <route edges="689583179#4 302739240#0 302739240#1 -1255581684 -828678741#0 118575975#3 118575975#4 118575975#5"/>
    </vehicle>
    <vehicle id="motorcycle126" type="motorcycle_motorcycle" depart="967.00" departLane="best">
        <route edges="295386152#2 295386152#3 698936203#2 698936203#3 295128790#5 295128790#6 295128790#7 295128790#8 295128790#9 295128790#10 1096471623#0 695511482#4 35950897#2 35950897#3"/>
    </vehicle>
    <vehicle id="motorcycle127" type="motorcycle_motorcycle" depart="974.68" departLane="best">
        <route edges="E4"/>
    </vehicle>
    <vehicle id="motorcycle128" type="motorcycle_motorcycle" depart="982.35" departLane="best">
        <route edges="295386152#2 295386152#3 295386152#4 295386152#6 118573606#0 118573606#1"/>
    </vehicle>
    <vehicle id="motorcycle131" type="motorcycle_motorcycle" depart="1005.37" departLane="best">
        <route edges="-118575975#3 828678741#0"/>
    </vehicle>
    <vehicle id="motorcycle132" type="motorcycle_motorcycle" depart="1013.05" departLane="best">
        <route edges="695040102#0 828678749#1 698936203#3 295128790#5 295128790#6 295128790#7 295128790#8 295128790#9 295128790#10 693885804#1"/>
    </vehicle>
    <vehicle id="motorcycle134" type="motorcycle_motorcycle" depart="1028.40" departLane="best" departSpeed="max">
        <route edges="689583179#0 -118575972#2 -118575972#0"/>
    </vehicle>
    <vehicle id="motorcycle135" type="motorcycle_motorcycle" depart="1036.07" departLane="best">
        <route edges="695025562#1 695025559 693885802#0 693885802#1 693885802#2 693885802#3 295386152#0 -118575975#6 -118575975#5"/>
    </vehicle>
    <vehicle id="motorcycle137" type="motorcycle_motorcycle" depart="1051.42" departLane="best" departSpeed="max">
        <route edges="-695027208 302739240#3 693885802#2 693885802#3 695030266 1279915895#1 408161670#0 408161670#1 408161670#2 408161670#3 408161670#4 408161670#5 408161670#6 408161670#8 408161670#9 408161670#10 408161670#11 408161670#12 408161670#13 -372467078#1 -372467078#0"/>
    </vehicle>
    <vehicle id="motorcycle138" type="motorcycle_motorcycle" depart="1059.10" departLane="best" departSpeed="max">
        <route edges="-295386152#8 -295386152#7 -295386152#6 -295386152#4 698936203#2 698936203#3 1279915895#1 408161670#0 408161670#1 408161670#2 408161670#3 408161670#4 408161670#5"/>
    </vehicle>
    <vehicle id="motorcycle140" type="motorcycle_motorcycle" depart="1074.45" departLane="best">
        <route edges="693885802#3 295386152#0 -118575975#6 -118575975#5 -118575975#4 -118575975#3 -118575975#2 -118575975#1 -118575975#0 118575972#1 689583179#1 689583179#2 689583179#4 689583179#5 1096471623#0"/>
    </vehicle>
    <vehicle id="motorcycle141" type="motorcycle_motorcycle" depart="1082.12" departLane="best" departSpeed="max">
        <route edges="641423230 -118575975#1 -118575975#0 118575972#1"/>
    </vehicle>
    <vehicle id="motorcycle142" type="motorcycle_motorcycle" depart="1089.79" departLane="best">
        <route edges="-295386152#7 -295386152#6 -295386152#4 -295386152#3 -295386152#2 -295386152#1 -118575975#6 -118575975#5 -118575975#4 828678743"/>
    </vehicle>
    <vehicle id="motorcycle143" type="motorcycle_motorcycle" depart="1097.47" departLane="best">
        <route edges="695040105#0 695040105#1 695040105#2 695040102#0 695040102#1 -295386152#4 -295386152#3"/>
    </vehicle>
    <vehicle id="motorcycle145" type="motorcycle_motorcycle" depart="1112.82" departLane="best">
        <route edges="-118575972#2 118575975#0 118575975#1 118575975#2 118575975#3 118575975#4 118575975#5 118575975#6 295386152#1 295386152#2 295386152#3 698936203#2 -828678749#1 695040102#1"/>
    </vehicle>
    <vehicle id="motorcycle146" type="motorcycle_motorcycle" depart="1120.49" departLane="best" departSpeed="max">
        <route edges="641423230 -118575975#1 -118575975#0 118575972#1"/>
    </vehicle>
    <vehicle id="motorcycle149" type="motorcycle_motorcycle" depart="1143.52" departLane="best">
        <route edges="-295386152#3 -295386152#2 -295386152#1 -118575975#6 -118575975#5 -118575975#4 -118575975#3 -118575975#2 -118575975#1 828678742"/>
    </vehicle>
    <vehicle id="motorcycle150" type="motorcycle_motorcycle" depart="1151.19" departLane="best">
        <route edges="698936203#2 698936203#3 1279915895#1 408161670#0 408161670#1 408161670#2 408161670#3"/>
    </vehicle>
    <vehicle id="motorcycle151" type="motorcycle_motorcycle" depart="1158.87" departLane="best">
        <route edges="695040102#1 -295386152#4 -295386152#3 -295386152#2 -295386152#1 -118575975#6 -118575975#5 -118575975#4 -118575975#3 -118575975#2 -118575975#1 -118575975#0 118575972#1 689583179#1"/>
    </vehicle>
    <vehicle id="motorcycle152" type="motorcycle_motorcycle" depart="1166.54" departLane="best">
        <route edges="-695040102#1 828678749#1 698936203#3 1279915895#1 408161670#0 408161670#1 408161670#2 408161670#3 408161670#4 408161670#5 408161670#6 408161670#8 408161670#9 408161670#10 408161670#11 408161670#12 408161670#13 -372467078#1"/>
    </vehicle>
    <vehicle id="motorcycle154" type="motorcycle_motorcycle" depart="1181.89" departLane="best" departSpeed="max">
        <route edges="694830396 694830397 694830397.22 695025562#1 695025559 693885802#0 693885802#1 693885802#2 693885802#3 295386152#0 -118575975#6 -118575975#5 -118575975#4 -118575975#3 828678741#0 828678740"/>
    </vehicle>
    <vehicle id="motorcycle155" type="motorcycle_motorcycle" depart="1189.56" departLane="best">
        <route edges="698936203#1 295386152#4 295386152#6 118573606#0"/>
    </vehicle>
    <vehicle id="motorcycle156" type="motorcycle_motorcycle" depart="1197.24" departLane="best" departSpeed="max">
        <route edges="-828678748 295386152#2 295386152#3 295386152#4 295386152#6"/>
    </vehicle>
    <vehicle id="motorcycle157" type="motorcycle_motorcycle" depart="1204.91" departLane="best">
        <route edges="694829084#1 E0 695025562#1 695025559 693885802#0 693885802#1 693885802#2 693885802#3 295386152#0 -118575975#6 -118575975#5 -118575975#4 -118575975#3 -118575975#2 -118575975#1 828678742"/>
    </vehicle>
    <vehicle id="motorcycle158" type="motorcycle_motorcycle" depart="1212.59" departLane="best">
        <route edges="295128790#10 693885804#1 693885804#1.60 693416739#0 693416739#0.11 693416739#1"/>
    </vehicle>
    <vehicle id="motorcycle159" type="motorcycle_motorcycle" depart="1220.26" departLane="best" departSpeed="max">
        <route edges="-696756023 -295386152#7 -295386152#6 -295386152#4 -295386152#3 828678746"/>
    </vehicle>
    <vehicle id="motorcycle161" type="motorcycle_motorcycle" depart="1235.61" departLane="best">
        <route edges="695025559 693885802#0 693885802#1 693885802#2 693885802#3 295386152#0 -118575975#6 -118575975#5 -118575975#4 -118575975#3 828678741#0 828678741#1"/>
    </vehicle>
    <vehicle id="motorcycle162" type="motorcycle_motorcycle" depart="1243.29" departLane="best">
        <route edges="-118575975#3 -118575975#2 -118575975#1 -118575975#0 118575972#1 689583179#1 689583179#2 689583179#4 689583179#5 695025559"/>
    </vehicle>
    <vehicle id="motorcycle163" type="motorcycle_motorcycle" depart="1250.96" departLane="best" departSpeed="max">
        <route edges="118575972#0 118575975#0 118575975#1 118575975#2 118575975#3 118575975#4 118575975#5 118575975#6 295386152#1 295386152#2 828678746"/>
    </vehicle>
    <vehicle id="motorcycle164" type="motorcycle_motorcycle" depart="1258.64" departLane="best">
        <route edges="694830397 694830397.22 695025562#1 695025559 693885802#0 693885802#1 693885802#2 693885802#3 295386152#0 -118575975#6 -118575975#5 -118575975#4 -118575975#3 828678741#0"/>
    </vehicle>
    <vehicle id="motorcycle165" type="motorcycle_motorcycle" depart="1266.31" departLane="best">
        <route edges="695025559 693885802#0 693885802#1 693885802#2 693885802#3 295386152#0 -118575975#6 -118575975#5 -118575975#4 -118575975#3 -118575975#2 -118575975#1 -118575975#0 118575972#1"/>
    </vehicle>