<?xml version="1.0" encoding="UTF-8"?>

<!-- generated on 2025-06-17 13:04:27.462880 by randomTrips.py v1_22_0+0002-63e50f52594
<configuration>
    <net-file value="osm.net.xml.gz"/>
    <output-trip-file value="osm.res_bike.trips.xml"/>
    <route-file value="osm.res_bike.rou.xml"/>
    <prefix value="res_bike"/>
    <trip-attributes value="departLane=&quot;best&quot;"/>
    <fringe-start-attributes value="departSpeed=&quot;max&quot;"/>
    <vehicle-class value="bicycle"/>
    <fringe-factor value="2"/>
    <vclass value="bicycle"/>
    <via-edge-types value="highway.residential"/>
    <min-distance value="150.0"/>
    <remove-loops value="True"/>
    <validate value="True"/>
    <insertion-rate value="0.00417"/>
</configuration>
-->

<!-- generated on 2025-06-17 13:04:27 by Eclipse SUMO duarouter Version 1.22.0
<duarouterConfiguration xmlns:xsi="http://www.w3.org/2001/XMLSchema-instance" xsi:noNamespaceSchemaLocation="http://sumo.dlr.de/xsd/duarouterConfiguration.xsd">

    <input>
        <net-file value="osm.net.xml.gz"/>
        <route-files value="osm.res_bike.trips.xml"/>
    </input>

    <output>
        <output-file value="osm.res_bike.rou.xml"/>
        <alternatives-output value="NUL"/>
    </output>

    <processing>
        <remove-loops value="true"/>
    </processing>

    <time>
        <begin value="0.0"/>
        <end value="3600.0"/>
    </time>

    <report>
        <no-warnings value="true"/>
        <ignore-errors value="true"/>
        <no-step-log value="true"/>
    </report>

</duarouterConfiguration>
-->

<routes xmlns:xsi="http://www.w3.org/2001/XMLSchema-instance" xsi:noNamespaceSchemaLocation="http://sumo.dlr.de/xsd/routes_file.xsd">
    <vType id="res_bike_bicycle" vClass="bicycle"/>
    <vehicle id="res_bike0" type="res_bike_bicycle" depart="0.00" departLane="best">
        <route edges="642035208#0 931369479#3 695040107#0 695040107#1 695040107#2 695040107#3 295128790#2 295128790#5 295128790#6 295128790#7 -372469388#1 -372469388#0 693885803#3 295386175#0 295386175#1"/>
    </vehicle>
</routes>
