<?xml version="1.0" encoding="UTF-8"?>

<!-- generated on 2025-06-17 12:55:21.359888 by randomTrips.py v1_22_0+0002-63e50f52594
<configuration>
    <net-file value="osm.net.xml.gz"/>
    <output-trip-file value="osm.passenger.trips.xml"/>
    <route-file value="osm.passenger.rou.xml"/>
    <prefix value="veh"/>
    <trip-attributes value="departLane=&quot;best&quot;"/>
    <fringe-start-attributes value="departSpeed=&quot;max&quot;"/>
    <vehicle-class value="passenger"/>
    <lanes value="True"/>
    <fringe-factor value="5"/>
    <allow-fringe.min-length value="10000.0"/>
    <via-edge-types value="highway.motorway,highway.motorway_link,highway.trunk_link,highway.primary_link,highway.secondary_link,highway.tertiary_link"/>
    <min-distance value="300.0"/>
    <min-distance.fringe value="100.0"/>
    <remove-loops value="True"/>
    <validate value="True"/>
    <insertion-density value="120.0"/>
</configuration>
-->

<!-- generated on 2025-06-17 12:55:21 by Eclipse SUMO duarouter Version 1.22.0
<duarouterConfiguration xmlns:xsi="http://www.w3.org/2001/XMLSchema-instance" xsi:noNamespaceSchemaLocation="http://sumo.dlr.de/xsd/duarouterConfiguration.xsd">

    <input>
        <net-file value="osm.net.xml.gz"/>
        <route-files value="osm.passenger.trips.xml"/>
    </input>

    <output>
        <output-file value="osm.passenger.rou.xml"/>
        <alternatives-output value="NUL"/>
    </output>

    <processing>
        <remove-loops value="true"/>
    </processing>

    <time>
        <begin value="0.0"/>
        <end value="3600.0"/>
    </time>

    <report>
        <no-warnings value="true"/>
        <ignore-errors value="true"/>
        <no-step-log value="true"/>
    </report>

</duarouterConfiguration>
-->

<routes xmlns:xsi="http://www.w3.org/2001/XMLSchema-instance" xsi:noNamespaceSchemaLocation="http://sumo.dlr.de/xsd/routes_file.xsd">
    <vType id="veh_passenger" vClass="passenger"/>
    <vehicle id="veh0" type="veh_passenger" depart="0.00" departLane="best">
        <route edges="295128790#2 295128790#5 295128790#6 295128790#7 295128790#8"/>
    </vehicle>
    <vehicle id="veh2" type="veh_passenger" depart="5.16" departLane="best" departSpeed="max">
        <route edges="118575972#0 118575972#1 689583179#1 689583179#2 689583179#4 689583179#5 693885804#1 693885804#1.60 693416739#0"/>
    </vehicle>
    <vehicle id="veh3" type="veh_passenger" depart="7.74" departLane="best" departSpeed="max">
        <route edges="118575972#0 118575972#1 689583179#1 689583179#2 689583179#4 689583179#5 693885803#0"/>
    </vehicle>
    <vehicle id="veh4" type="veh_passenger" depart="10.32" departLane="best">
        <route edges="695040102#1 -295386152#4 -295386152#3 -295386152#2 -295386152#1 -118575975#6 -118575975#5 -118575975#4 -118575975#3 -118575975#2 -118575975#1 -118575975#0 -118575972#0"/>
    </vehicle>
    <vehicle id="veh5" type="veh_passenger" depart="12.90" departLane="best">
        <route edges="828678749#0 -695040102#0 695040105#3 118573606#3 118573606#4 118573606#6 118573606#8 118573606#9 118573606#10 118573606#12 372467078#0 372467078#1"/>
    </vehicle>
    <vehicle id="veh6" type="veh_passenger" depart="15.48" departLane="best" departSpeed="max">
        <route edges="-696756023 -295386152#7 -295386152#6 -295386152#4 -295386152#3 -295386152#2 -295386152#1 -118575975#6 -828678745#1 -828678745#0"/>
    </vehicle>
    <vehicle id="veh7" type="veh_passenger" depart="18.05" departLane="best" departSpeed="max">
        <route edges="695510006 295128790#1 295128790#2 295128790#5 295128790#6 295128790#7 295128790#8 295128790#9 295128790#10 693885803#0 693885803#2"/>
    </vehicle>
    <vehicle id="veh8" type="veh_passenger" depart="20.63" departLane="best" departSpeed="max">
        <route edges="302751284 694829084#1 E0 693416739#0 693416739#0.11 693416739#1"/>
    </vehicle>
    <vehicle id="veh9" type="veh_passenger" depart="23.21" departLane="best">
        <route edges="695040105#2 695040102#0 828678749#1 698936203#3 295128790#5 295128790#6 295128790#7 295128790#8 295128790#9 295128790#10 693885803#0 693885803#2 693885803#3 693885803#5 693885803#6"/>
    </vehicle>
    <vehicle id="veh12" type="veh_passenger" depart="30.95" departLane="best">
        <route edges="-118575975#0 118575972#1 689583179#1 689583179#2 689583179#4 689583179#5 1096471623#0 695511482#4 35950897#2"/>
    </vehicle>
    <vehicle id="veh13" type="veh_passenger" depart="33.53" departLane="best">
        <route edges="695040102#0 828678749#1 698936203#3 295128790#5 295128790#6 295128790#7 295128790#8 295128790#9"/>
    </vehicle>
    <vehicle id="veh14" type="veh_passenger" depart="36.11" departLane="best">
        <route edges="693885802#2 693885802#3 695030266 1279915895#1 408161670#0"/>
    </vehicle>
    <vehicle id="veh15" type="veh_passenger" depart="38.69" departLane="best" departSpeed="max">
        <route edges="302751284 694829084#1 E0 695025562#1 695025559 693885802#0 693885802#1 693885802#2 693885802#3 695030266 295128790#5 295128790#6"/>
    </vehicle>
    <vehicle id="veh17" type="veh_passenger" depart="43.85" departLane="best" departSpeed="max">
        <route edges="-828678747 698936203#1 698936203#2 698936203#3 1279915895#1 408161670#0 408161670#1 408161670#2 408161670#3 408161670#4 408161670#5 408161670#6 408161670#8 408161670#9 408161670#10"/>
    </vehicle>
    <vehicle id="veh19" type="veh_passenger" depart="49.01" departLane="best" departSpeed="max">
        <route edges="695510006 295128790#1 295128790#2 295128790#5 295128790#6 295128790#7 295128790#8 295128790#9 295128790#10 1096471623#0 695511482#4 35950897#2 35950897#3"/>
    </vehicle>
    <vehicle id="veh22" type="veh_passenger" depart="56.74" departLane="best" departSpeed="max">
        <route edges="689583179#0 689583179#1 689583179#2 689583179#4 302739240#0 302739240#1 302739240#2 302739240#3 693885802#2 693885802#3 -295386152#0 295386152#1 295386152#2 295386152#3 295386152#4 295386152#6 295386152#7 295386152#8"/>
    </vehicle>
    <vehicle id="veh23" type="veh_passenger" depart="59.32" departLane="best">
        <route edges="695025562#1 695025559 693885802#0 693885802#1 693885802#2 693885802#3 695030266 1279915895#1 408161670#0 408161670#1 408161670#2 408161670#3"/>
    </vehicle>
    <vehicle id="veh24" type="veh_passenger" depart="61.90" departLane="best" departSpeed="max">
        <route edges="-404718839 689583179#2 689583179#4 302739240#0 302739240#1 302739240#2 302739240#3 693885802#2 693885802#3 695030266 1279915895#1 408161670#0 408161670#1 408161670#2 408161670#3 408161670#4 408161670#5 408161670#6 408161670#8 408161670#9 408161670#10"/>
    </vehicle>
    <vehicle id="veh26" type="veh_passenger" depart="67.06" departLane="best" departSpeed="max">
        <route edges="-828678742 118575975#1 118575975#2 118575975#3 118575975#4 118575975#5 118575975#6 295386152#1 295386152#2 295386152#3 698936203#2 698936203#3 1279915895#1 408161670#0 408161670#1 408161670#2 408161670#3 408161670#4 408161670#5"/>
    </vehicle>
    <vehicle id="veh27" type="veh_passenger" depart="69.64" departLane="best" departSpeed="max">
        <route edges="641397122 694829084#1 E0 695025562#1 695025559 693885802#0 693885802#1 693885802#2 693885802#3 695030266 695040105#0 695040105#1 695040105#2 695040105#3 295128790#1"/>
    </vehicle>
    <vehicle id="veh28" type="veh_passenger" depart="72.22" departLane="best">
        <route edges="118575972#1 689583179#1 689583179#2 689583179#4 689583179#5 1096471623#0 695511482#4 35950897#2 35950897#3"/>
    </vehicle>
    <vehicle id="veh31" type="veh_passenger" depart="79.96" departLane="best" departSpeed="max">
        <route edges="-696756023 -295386152#7 -295386152#6 -295386152#4 -295386152#3 -295386152#2 -295386152#1 -118575975#6 -118575975#5 -118575975#4 -118575975#3 -118575975#2 -118575975#1 -118575975#0 118575972#1 689583179#1 689583179#2 689583179#4 689583179#5"/>
    </vehicle>
    <vehicle id="veh32" type="veh_passenger" depart="82.54" departLane="best" departSpeed="max">
        <route edges="-695027208 302739240#3 693885802#2 693885802#3 695030266 695040105#0 695040105#1 695040105#2 695040105#3"/>
    </vehicle>
    <vehicle id="veh33" type="veh_passenger" depart="85.11" departLane="best">
        <route edges="694830397 694830397.22 695025562#1 695025559 693885802#0 693885802#1 693885802#2 693885802#3 695030266 695040105#0 695040105#1 695040105#2 695040105#3 118573606#3 118573606#4 118573606#6 118573606#8 118573606#9 118573606#10"/>
    </vehicle>
    <vehicle id="veh36" type="veh_passenger" depart="92.85" departLane="best" departSpeed="max">
        <route edges="689583179#0 689583179#1 689583179#2 689583179#4 302739240#0 302739240#1 302739240#2 302739240#3 693885802#2 693885802#3 695030266"/>
    </vehicle>
    <vehicle id="veh40" type="veh_passenger" depart="103.17" departLane="best" departSpeed="max">
        <route edges="118575972#0 118575975#0 118575975#1 118575975#2 118575975#3 118575975#4 118575975#5 118575975#6 295386152#1 295386152#2 295386152#3 698936203#2 698936203#3 695040105#0 695040105#1 695040105#2 695040105#3 118573606#3"/>
    </vehicle>
    <vehicle id="veh41" type="veh_passenger" depart="105.75" departLane="best">
        <route edges="695040102#0 828678749#1 698936203#3 295128790#5 295128790#6 295128790#7 295128790#8 295128790#9 295128790#10"/>
    </vehicle>
    <vehicle id="veh42" type="veh_passenger" depart="108.33" departLane="best">
        <route edges="-828678741#0 118575975#3 118575975#4 118575975#5 118575975#6 295386152#1 295386152#2 295386152#3 698936203#2 698936203#3 1279915895#1 408161670#0 408161670#1 408161670#2 408161670#3 408161670#4"/>
    </vehicle>
    <vehicle id="veh44" type="veh_passenger" depart="113.49" departLane="best">
        <route edges="118573606#0 118573606#1 295128790#1 295128790#2 1279915895#1 408161670#0 408161670#1 408161670#2 408161670#3 408161670#4 408161670#5 408161670#6 408161670#8"/>
    </vehicle>
    <vehicle id="veh47" type="veh_passenger" depart="121.22" departLane="best" departSpeed="max">
        <route edges="689583179#0 689583179#1 689583179#2 689583179#4 302739240#0 302739240#1 302739240#2 302739240#3 693885802#2 693885802#3 -295386152#0 295386152#1 295386152#2 295386152#3 295386152#4 295386152#6"/>
    </vehicle>
    <vehicle id="veh48" type="veh_passenger" depart="123.80" departLane="best">
        <route edges="E0 695025562#1 695025559 693885802#0 693885802#1 693885802#2 693885802#3 -295386152#0 295386152#1 295386152#2 828678746"/>
    </vehicle>
    <vehicle id="veh49" type="veh_passenger" depart="126.38" departLane="best" departSpeed="max">
        <route edges="302751284 694829084#1 E0 695025562#1 695025559 693885802#0 693885802#1 693885802#2 693885802#3 -295386152#0 -118575975#6 -118575975#5 -118575975#4 -118575975#3 -118575975#2 -118575975#1 -118575975#0 118575972#1 689583179#1 689583179#2 689583179#4 E2"/>
    </vehicle>
    <vehicle id="veh51" type="veh_passenger" depart="131.54" departLane="best">
        <route edges="828678749#0 828678749#1 698936203#3 295128790#5 295128790#6 295128790#7 295128790#8 295128790#9 295128790#10 693885804#1 E4"/>
    </vehicle>
    <vehicle id="veh52" type="veh_passenger" depart="134.12" departLane="best" departSpeed="max">
        <route edges="-828678747 698936203#1 698936203#2 698936203#3 295128790#5 295128790#6 295128790#7 295128790#8 295128790#9 295128790#10 1096471623#0 695511482#4 35950897#2 35950897#3"/>
    </vehicle>
    <vehicle id="veh53" type="veh_passenger" depart="136.70" departLane="best" departSpeed="max">
        <route edges="689583179#0 689583179#1 689583179#2 689583179#4 302739240#0 302739240#1 302739240#2 302739240#3 693885802#2 693885802#3 695030266 695040105#0 695040105#1"/>
    </vehicle>
    <vehicle id="veh55" type="veh_passenger" depart="141.86" departLane="best">
        <route edges="695040102#0 828678749#1 698936203#3 295128790#5 295128790#6 295128790#7 295128790#8 295128790#9 295128790#10"/>
    </vehicle>
    <vehicle id="veh58" type="veh_passenger" depart="149.60" departLane="best">
        <route edges="118575975#5 118575975#6 295386152#1 295386152#2 295386152#3 698936203#2 698936203#3 1279915895#1 408161670#0 408161670#1 408161670#2 408161670#3 408161670#4 408161670#5 408161670#6 408161670#8 408161670#9 408161670#10 408161670#11 408161670#12"/>
    </vehicle>
    <vehicle id="veh59" type="veh_passenger" depart="152.17" departLane="best" departSpeed="max">
        <route edges="-695027208 302739240#3 693885802#2 693885802#3 695030266 1279915895#1 408161670#0 408161670#1 408161670#2 408161670#3 408161670#4 408161670#5 408161670#6 408161670#8 408161670#9"/>
    </vehicle>
    <vehicle id="veh61" type="veh_passenger" depart="157.33" departLane="best" departSpeed="max">
        <route edges="302751284 694829084#1 E0 695025562#1 695025559 693885802#0 693885802#1 693885802#2 693885802#3 -295386152#0 -118575975#6 -118575975#5 -118575975#4"/>
    </vehicle>
    <vehicle id="veh64" type="veh_passenger" depart="165.07" departLane="best">
        <route edges="698936203#3 295128790#5 295128790#6 295128790#7 295128790#8 295128790#9 295128790#10 1096471623#0 695511482#4 35950897#2 35950897#3"/>
    </vehicle>
    <vehicle id="veh66" type="veh_passenger" depart="170.23" departLane="best" departSpeed="max">
        <route edges="-828678743 -118575975#3 -118575975#2 -118575975#1 -118575975#0 118575972#1 689583179#1 689583179#2 689583179#4 689583179#5 1096471623#0"/>
    </vehicle>
    <vehicle id="veh67" type="veh_passenger" depart="172.81" departLane="best">
        <route edges="295128790#2 295128790#5 295128790#6 295128790#7 295128790#8 295128790#9 295128790#10 693885803#0 693885803#2 693885803#3"/>
    </vehicle>
    <vehicle id="veh68" type="veh_passenger" depart="175.39" departLane="best">
        <route edges="694829084#1 E0 695025562#1 695025559 693885802#0 693885802#1 693885802#2 693885802#3 695030266 295128790#5"/>
    </vehicle>
    <vehicle id="veh69" type="veh_passenger" depart="177.97" departLane="best">
        <route edges="693885802#2 693885802#3 -295386152#0 295386152#1 295386152#2 295386152#3 295386152#4 295386152#6 295386152#7 295386152#8"/>
    </vehicle>
    <vehicle id="veh73" type="veh_passenger" depart="188.28" departLane="best">
        <route edges="-118575975#0 118575972#1 689583179#1 689583179#2 689583179#4 689583179#5 1096471623#0 695511482#4"/>
    </vehicle>
    <vehicle id="veh74" type="veh_passenger" depart="190.86" departLane="best">
        <route edges="693885802#2 693885802#3 -295386152#0 295386152#1 295386152#2 295386152#3 295386152#4 295386152#6 295386152#7 295386152#8"/>
    </vehicle>
    <vehicle id="veh76" type="veh_passenger" depart="196.02" departLane="best" departSpeed="max">
        <route edges="698936203#0 698936203#1 698936203#2 698936203#3 295128790#5 295128790#6 295128790#7 295128790#8 295128790#9 295128790#10 693885804#1 693885804#1.60 693416739#0 693416739#0.11 693416739#1"/>
    </vehicle>
    <vehicle id="veh78" type="veh_passenger" depart="201.18" departLane="best" departSpeed="max">
        <route edges="-828678746 295386152#3 698936203#2 698936203#3 695040105#0 695040105#1 695040105#2 695040105#3 118573606#3 118573606#4 118573606#6 118573606#8 118573606#9 118573606#10"/>
    </vehicle>
    <vehicle id="veh80" type="veh_passenger" depart="206.34" departLane="best">
        <route edges="695040102#1 -295386152#4 -295386152#3 -295386152#2 -295386152#1 -118575975#6 -118575975#5 -118575975#4 -118575975#3 828678741#0 828678741#1"/>
    </vehicle>
    <vehicle id="veh81" type="veh_passenger" depart="208.92" departLane="best">
        <route edges="695040102#1 -295386152#4 -295386152#3 -295386152#2 -295386152#1 -118575975#6 -118575975#5 -118575975#4 -118575975#3 -118575975#2 -118575975#1 -118575975#0 118575972#1 689583179#1 689583179#2 689583179#4 302739240#0"/>
    </vehicle>
    <vehicle id="veh82" type="veh_passenger" depart="211.50" departLane="best">
        <route edges="695025562#1 695025559 693885802#0 693885802#1 693885802#2 693885802#3 -295386152#0 -118575975#6 -828678745#1"/>
    </vehicle>
    <vehicle id="veh83" type="veh_passenger" depart="214.08" departLane="best" departSpeed="max">
        <route edges="695510006 295128790#1 295128790#2 295128790#5 295128790#6 295128790#7 295128790#8 295128790#9 295128790#10 693885804#1 693885804#1.60 779462187#1.4 779462187#1.9"/>
    </vehicle>
    <vehicle id="veh84" type="veh_passenger" depart="216.66" departLane="best" departSpeed="max">
        <route edges="118575972#0 118575972#1 689583179#1 689583179#2 689583179#4 689583179#5 693885804#1 693885804#1.60 779462187#1.4 779462187#1.9"/>
    </vehicle>
    <vehicle id="veh86" type="veh_passenger" depart="221.81" departLane="best">
        <route edges="693885802#3 695030266 1279915895#1 408161670#0 408161670#1 408161670#2 408161670#3 408161670#4 408161670#5 408161670#6 408161670#8 408161670#9 408161670#10 408161670#11 408161670#12"/>
    </vehicle>
    <vehicle id="veh87" type="veh_passenger" depart="224.39" departLane="best">
        <route edges="828678744 -118575975#4 -118575975#3 -118575975#2 -118575975#1 -118575975#0 118575972#1 689583179#1 689583179#2 689583179#4 689583179#5 1096471623#0"/>
    </vehicle>
    <vehicle id="veh88" type="veh_passenger" depart="226.97" departLane="best">
        <route edges="E0 695025562#1 695025559 693885802#0 693885802#1 693885802#2 693885802#3 695030266 695040105#0 695040105#1 695040105#2 695040105#3 295128790#1"/>
    </vehicle>
    <vehicle id="veh89" type="veh_passenger" depart="229.55" departLane="best">
        <route edges="E0 695025562#1 695025559 693885802#0 693885802#1 693885802#2 693885802#3 -295386152#0 295386152#1 295386152#2 295386152#3 295386152#4 295386152#6 295386152#7 295386152#8"/>
    </vehicle>
    <vehicle id="veh90" type="veh_passenger" depart="232.13" departLane="best" departSpeed="max">
        <route edges="-828678741#1 -828678741#0 118575975#3 118575975#4 118575975#5 118575975#6 295386152#1 295386152#2 295386152#3 698936203#2 698936203#3 1279915895#1 408161670#0 408161670#1 408161670#2 408161670#3 408161670#4 408161670#5"/>
    </vehicle>
    <vehicle id="veh91" type="veh_passenger" depart="234.71" departLane="best" departSpeed="max">
        <route edges="694830396 694830397 694830397.22 695025562#1 1096471623#0 695511482#4 35950897#2 35950897#3"/>
    </vehicle>
    <vehicle id="veh93" type="veh_passenger" depart="239.87" departLane="best">
        <route edges="-118575972#2 118575975#0 118575975#1 118575975#2 118575975#3 118575975#4 118575975#5 118575975#6 295386152#1 295386152#2 828678746"/>
    </vehicle>
    <vehicle id="veh94" type="veh_passenger" depart="242.45" departLane="best" departSpeed="max">
        <route edges="302751284 694829084#1 E0 695025562#1 695025559 693885802#0 693885802#1 693885802#2 693885802#3 -295386152#0 -118575975#6 -118575975#5 -118575975#4 -118575975#3 -118575975#2 -641423230"/>
    </vehicle>
    <vehicle id="veh95" type="veh_passenger" depart="245.03" departLane="best">
        <route edges="295386152#1 295386152#2 295386152#3 698936203#2 698936203#3 295128790#5 295128790#6 295128790#7 295128790#8 295128790#9 295128790#10 693885804#1 693885804#1.60 779462187#1.4 779462187#1.9"/>
    </vehicle>
    <vehicle id="veh98" type="veh_passenger" depart="252.77" departLane="best" departSpeed="max">
        <route edges="-828678743 118575975#4 118575975#5 118575975#6 295386152#1 295386152#2 295386152#3 698936203#2 698936203#3 1279915895#1 408161670#0 408161670#1 408161670#2 408161670#3"/>
    </vehicle>
    <vehicle id="veh100" type="veh_passenger" depart="257.92" departLane="best" departSpeed="max">
        <route edges="698936203#0 698936203#1 698936203#2 698936203#3 295128790#5 295128790#6 295128790#7 295128790#8 295128790#9 295128790#10 693885803#0 693885803#2 693885803#3 693885803#5 693885803#6"/>
    </vehicle>
    <vehicle id="veh101" type="veh_passenger" depart="260.50" departLane="best">
        <route edges="295128790#8 295128790#9 295128790#10 693885804#1 693885804#1.60 693416739#0 693416739#0.11 693416739#1"/>
    </vehicle>
    <vehicle id="veh102" type="veh_passenger" depart="263.08" departLane="best">
        <route edges="118575972#1 689583179#1 689583179#2 689583179#4 689583179#5 1096471623#0 695511482#4 35950897#2"/>
    </vehicle>
    <vehicle id="veh106" type="veh_passenger" depart="273.40" departLane="best">
        <route edges="695025562#1 695025559 693885802#0 693885802#1 693885802#2 693885802#3 695030266 1279915895#1"/>
    </vehicle>
    <vehicle id="veh107" type="veh_passenger" depart="275.98" departLane="best" departSpeed="max">
        <route edges="-696756023 -295386152#7 -295386152#6 -295386152#4 698936203#2 698936203#3 295128790#5 295128790#6 295128790#7 295128790#8 295128790#9 295128790#10 693885804#1 693885804#1.60 693416739#0 693416739#0.11"/>
    </vehicle>
    <vehicle id="veh108" type="veh_passenger" depart="278.56" departLane="best">
        <route edges="693885802#2 693885802#3 695030266 695040105#0 695040105#1 695040105#2 695040105#3 118573606#3 118573606#4 118573606#6 118573606#8 118573606#9 118573606#10 118573606#12 372467078#0"/>
    </vehicle>
    <vehicle id="veh113" type="veh_passenger" depart="291.45" departLane="best" departSpeed="max">
        <route edges="641397122 694829084#1 E0 695025562#1 695025559 693885802#0 693885802#1 693885802#2 693885802#3 -295386152#0 295386152#1 295386152#2 295386152#3"/>
    </vehicle>
    <vehicle id="veh115" type="veh_passenger" depart="296.61" departLane="best" departSpeed="max">
        <route edges="-828678741#1 -828678741#0 118575975#3 118575975#4 118575975#5 118575975#6 295386152#1 295386152#2 295386152#3 698936203#2 698936203#3 1279915895#1 408161670#0 408161670#1 408161670#2 408161670#3 408161670#4"/>
    </vehicle>
    <vehicle id="veh117" type="veh_passenger" depart="301.77" departLane="best">
        <route edges="689583179#5 695025559 693885802#0 693885802#1 693885802#2 693885802#3 -295386152#0 295386152#1 828678748"/>
    </vehicle>
    <vehicle id="veh118" type="veh_passenger" depart="304.35" departLane="best" departSpeed="max">
        <route edges="698936203#0 698936203#1 698936203#2 698936203#3 295128790#5 295128790#6 295128790#7 295128790#8 295128790#9 295128790#10 693885803#0 693885803#2 693885803#3 693885803#5"/>
    </vehicle>
    <vehicle id="veh119" type="veh_passenger" depart="306.93" departLane="best">
        <route edges="695040105#2 695040102#0 828678749#1 698936203#3 295128790#5 295128790#6 295128790#7 295128790#8 295128790#9 295128790#10 693885804#1 693885804#1.60 693416739#0 693416739#0.11 693416739#1"/>
    </vehicle>
    <vehicle id="veh122" type="veh_passenger" depart="314.67" departLane="best">
        <route edges="295128790#2 295128790#5 295128790#6 295128790#7 295128790#8 295128790#9 295128790#10 1096471623#0 695511482#4 35950897#2 35950897#3"/>
    </vehicle>
    <vehicle id="veh123" type="veh_passenger" depart="317.25" departLane="best" departSpeed="max">
        <route edges="689583179#0 689583179#1 689583179#2 689583179#4 302739240#0 302739240#1 302739240#2 302739240#3 693885802#2 693885802#3 695030266 695040105#0 695040105#1 695040105#2 695040105#3 118573606#3 118573606#4 118573606#6"/>
    </vehicle>
    <vehicle id="veh128" type="veh_passenger" depart="330.14" departLane="best" departSpeed="max">
        <route edges="302751284 694829084#1 E0 695025562#1 695025559 693885802#0 693885802#1 693885802#2 693885802#3 -295386152#0 -118575975#6 -118575975#5 -118575975#4 -118575975#3 -118575975#2 -118575975#1 -118575975#0 -118575972#0"/>
    </vehicle>
    <vehicle id="veh129" type="veh_passenger" depart="332.72" departLane="best" departSpeed="max">
        <route edges="302751284 694829084#1 E0 695025562#1 695025559 693885802#0 693885802#1 693885802#2 693885802#3 695030266 695040105#0 695040105#1 695040105#2"/>
    </vehicle>
    <vehicle id="veh131" type="veh_passenger" depart="337.88" departLane="best" departSpeed="max">
        <route edges="689583179#0 689583179#1 689583179#2 689583179#4 689583179#5 693885803#0 693885803#2"/>
    </vehicle>
    <vehicle id="veh134" type="veh_passenger" depart="345.62" departLane="best">
        <route edges="295386152#2 295386152#3 698936203#2 698936203#3 295128790#5 295128790#6 295128790#7 295128790#8 295128790#9 295128790#10 693885804#1"/>
    </vehicle>
    <vehicle id="veh135" type="veh_passenger" depart="348.20" departLane="best">
        <route edges="-828678744 828678745#1 118575975#6 295386152#1 295386152#2 295386152#3 698936203#2 698936203#3 1279915895#1 408161670#0 408161670#1 408161670#2 408161670#3 408161670#4 408161670#5 408161670#6 408161670#8 408161670#9"/>
    </vehicle>
    <vehicle id="veh136" type="veh_passenger" depart="350.78" departLane="best" departSpeed="max">
        <route edges="-295386152#8 -295386152#7 -295386152#6 -295386152#4 698936203#2 698936203#3 1279915895#1 408161670#0 408161670#1 408161670#2 408161670#3 408161670#4 408161670#5 408161670#6 408161670#8 408161670#9 408161670#10"/>
    </vehicle>
    <vehicle id="veh137" type="veh_passenger" depart="353.36" departLane="best" departSpeed="max">
        <route edges="118575972#0 118575972#1 689583179#1 689583179#2 689583179#4 689583179#5 1096471623#0 695511482#4 35950897#2 35950897#3"/>
    </vehicle>
    <vehicle id="veh138" type="veh_passenger" depart="355.93" departLane="best">
        <route edges="694830397 694830397.22 695025562#1 695025559 693885802#0 693885802#1 693885802#2 693885802#3 695030266 1279915895#1 408161670#0 408161670#1 408161670#2 408161670#3 408161670#4 408161670#5 408161670#6 408161670#8 408161670#9 408161670#10"/>
    </vehicle>
    <vehicle id="veh140" type="veh_passenger" depart="361.09" departLane="best">
        <route edges="-118575975#6 -118575975#5 -118575975#4 -118575975#3 -118575975#2 -118575975#1 -118575975#0 118575972#1 689583179#1 689583179#2 689583179#4 E2 693416739#0.11 693416739#1"/>
    </vehicle>
    <vehicle id="veh145" type="veh_passenger" depart="373.99" departLane="best" departSpeed="max">
        <route edges="-828678748 295386152#2 295386152#3 698936203#2 698936203#3 295128790#5 295128790#6 295128790#7 295128790#8 295128790#9 295128790#10 693885803#0 693885803#2 693885803#3"/>
    </vehicle>
    <vehicle id="veh147" type="veh_passenger" depart="379.15" departLane="best">
        <route edges="828678749#0 828678749#1 698936203#3 1279915895#1 408161670#0 408161670#1 408161670#2 408161670#3 408161670#4 408161670#5 408161670#6 408161670#8 408161670#9 408161670#10 408161670#11 408161670#12"/>
    </vehicle>
    <vehicle id="veh148" type="veh_passenger" depart="381.73" departLane="best">
        <route edges="694829084#1 E0 695025562#1 695025559 693885802#0 693885802#1 693885802#2 693885802#3 -295386152#0 -118575975#6 -118575975#5 -118575975#4 -118575975#3 -118575975#2 -641423230"/>
    </vehicle>
    <vehicle id="veh149" type="veh_passenger" depart="384.31" departLane="best" departSpeed="max">
        <route edges="-828678741#1 -828678741#0 -118575975#2 -118575975#1 -118575975#0 118575972#1 689583179#1 689583179#2 689583179#4 689583179#5 1096471623#0 695511482#4"/>
    </vehicle>
    <vehicle id="veh150" type="veh_passenger" depart="386.89" departLane="best" departSpeed="max">
        <route edges="695510006 295128790#1 295128790#2 295128790#5 295128790#6 295128790#7 295128790#8 295128790#9 295128790#10 693885803#0 693885803#2"/>
    </vehicle>
    <vehicle id="veh151" type="veh_passenger" depart="389.46" departLane="best">
        <route edges="695025559 693885802#0 693885802#1 693885802#2 693885802#3 695030266 695040105#0 695040105#1 695040105#2 695040105#3 118573606#3 118573606#4 118573606#6 118573606#8 118573606#9 118573606#10 118573606#12 372467078#0 372467078#1"/>
    </vehicle>
    <vehicle id="veh152" type="veh_passenger" depart="392.04" departLane="best" departSpeed="max">
        <route edges="641397122 694829084#1 E0 695025562#1 695025559 693885802#0 693885802#1 693885802#2 693885802#3 695030266 695040105#0 695040105#1 695040105#2 695040105#3 118573606#3 118573606#4 118573606#6 118573606#8 118573606#9 118573606#10 118573606#12 372467078#0 372467078#1"/>
    </vehicle>
    <vehicle id="veh153" type="veh_passenger" depart="394.62" departLane="best" departSpeed="max">
        <route edges="695510006 295128790#1 295128790#2 295128790#5 295128790#6 295128790#7 295128790#8 295128790#9 295128790#10 693885804#1 693885804#1.60 779462187#1.4 779462187#1.9"/>
    </vehicle>
    <vehicle id="veh155" type="veh_passenger" depart="399.78" departLane="best">
        <route edges="295128790#2 295128790#5 295128790#6 295128790#7 295128790#8 295128790#9 295128790#10 693885804#1 693885804#1.60 779462187#1.4"/>
    </vehicle>
    <vehicle id="veh156" type="veh_passenger" depart="402.36" departLane="best">
        <route edges="295128790#2 295128790#5 295128790#6 295128790#7 295128790#8 295128790#9 295128790#10 693885804#1 693885804#1.60 779462187#1.4 779462187#1.9"/>
    </vehicle>
    <vehicle id="veh159" type="veh_passenger" depart="410.10" departLane="best" departSpeed="max">
        <route edges="302751284 694829084#1 E0 695025562#1 695025559 693885802#0 693885802#1 693885802#2 693885802#3 -295386152#0 -118575975#6 -118575975#5"/>
    </vehicle>
    <vehicle id="veh160" type="veh_passenger" depart="412.68" departLane="best" departSpeed="max">
        <route edges="695510006 295128790#1 295128790#2 295128790#5 295128790#6 295128790#7 295128790#8 295128790#9 295128790#10"/>
    </vehicle>
    <vehicle id="veh161" type="veh_passenger" depart="415.26" departLane="best" departSpeed="max">
        <route edges="-696756023 -295386152#7 -295386152#6 -295386152#4 -295386152#3 -295386152#2 -295386152#1 -118575975#6 -118575975#5 -118575975#4 -118575975#3 828678741#0 828678740 302739240#2 695027208"/>
    </vehicle>
    <vehicle id="veh163" type="veh_passenger" depart="420.42" departLane="best" departSpeed="max">