<?xml version="1.0" encoding="UTF-8"?>

<!-- generated on 2025-06-17 13:04:32.252702 by randomTrips.py v1_22_0+0002-63e50f52594
<configuration>
    <net-file value="osm.net.xml.gz"/>
    <output-trip-file value="osm.motorcycle.trips.xml"/>
    <route-file value="osm.motorcycle.rou.xml"/>
    <prefix value="motorcycle"/>
    <trip-attributes value="departLane=&quot;best&quot;"/>
    <fringe-start-attributes value="departSpeed=&quot;max&quot;"/>
    <vehicle-class value="motorcycle"/>
    <fringe-factor value="2"/>
    <vclass value="motorcycle"/>
    <via-edge-types value="highway.motorway,highway.motorway_link,highway.trunk_link,highway.primary_link,highway.secondary_link,highway.tertiary_link"/>
    <max-distance value="1200.0"/>
    <remove-loops value="True"/>
    <validate value="True"/>
    <insertion-density value="40.0"/>
</configuration>
-->

<!-- generated on 2025-06-17 13:04:32 by Eclipse SUMO duarouter Version 1.22.0
<duarouterConfiguration xmlns:xsi="http://www.w3.org/2001/XMLSchema-instance" xsi:noNamespaceSchemaLocation="http://sumo.dlr.de/xsd/duarouterConfiguration.xsd">

    <input>
        <net-file value="osm.net.xml.gz"/>
        <route-files value="osm.motorcycle.trips.xml"/>
    </input>

    <output>
        <output-file value="osm.motorcycle.trips.xml.tmp"/>
        <alternatives-output value="NUL"/>
        <write-trips value="true"/>
    </output>

    <processing>
        <remove-loops value="true"/>
    </processing>

    <time>
        <begin value="0.0"/>
        <end value="3600.0"/>
    </time>

    <report>
        <no-warnings value="true"/>
        <ignore-errors value="true"/>
        <no-step-log value="true"/>
    </report>

</duarouterConfiguration>
-->

<routes xmlns:xsi="http://www.w3.org/2001/XMLSchema-instance" xsi:noNamespaceSchemaLocation="http://sumo.dlr.de/xsd/routes_file.xsd">
    <vType id="motorcycle_motorcycle" vClass="motorcycle"/>
    <trip id="motorcycle0" type="motorcycle_motorcycle" depart="0.00" departLane="best" departSpeed="max" from="641423230" to="-118575975#1"/>
    <trip id="motorcycle2" type="motorcycle_motorcycle" depart="15.48" departLane="best" from="693885803#3" to="693885803#5"/>
    <trip id="motorcycle3" type="motorcycle_motorcycle" depart="23.21" departLane="best" departSpeed="max" from="698936203#0" to="-295386152#2"/>
    <trip id="motorcycle5" type="motorcycle_motorcycle" depart="38.69" departLane="best" from="118575975#5" to="408161670#1"/>
    <trip id="motorcycle6" type="motorcycle_motorcycle" depart="46.43" departLane="best" from="-118575975#3" to="-828678749#1"/>
    <trip id="motorcycle7" type="motorcycle_motorcycle" depart="54.16" departLane="best" departSpeed="max" from="689583179#0" to="408161670#4"/>
    <trip id="motorcycle8" type="motorcycle_motorcycle" depart="61.90" departLane="best" from="-828678745#1" to="689583179#4"/>
    <trip id="motorcycle9" type="motorcycle_motorcycle" depart="69.64" departLane="best" from="695025559" to="-118575972#0"/>
    <trip id="motorcycle10" type="motorcycle_motorcycle" depart="77.38" departLane="best" from="694830397.22" to="693885803#9"/>
    <trip id="motorcycle11" type="motorcycle_motorcycle" depart="85.11" departLane="best" departSpeed="max" from="118575972#0" to="-695040102#1"/>
    <trip id="motorcycle12" type="motorcycle_motorcycle" depart="92.85" departLane="best" from="828678749#0" to="295128790#2"/>
    <trip id="motorcycle13" type="motorcycle_motorcycle" depart="100.59" departLane="best" from="-295386152#7" to="-295386152#4"/>
    <trip id="motorcycle14" type="motorcycle_motorcycle" depart="108.33" departLane="best" from="695040105#1" to="693416739#0"/>
    <trip id="motorcycle15" type="motorcycle_motorcycle" depart="116.07" departLane="best" from="694830397.22" to="694830397.22"/>
    <trip id="motorcycle17" type="motorcycle_motorcycle" depart="131.54" departLane="best" from="118575975#4" to="408161670#5"/>
    <trip id="motorcycle18" type="motorcycle_motorcycle" depart="139.28" departLane="best" from="695040102#0" to="693416739#1"/>
    <trip id="motorcycle20" type="motorcycle_motorcycle" depart="154.75" departLane="best" from="693885802#2" to="-118575975#4"/>
    <trip id="motorcycle21" type="motorcycle_motorcycle" depart="162.49" departLane="best" departSpeed="max" from="-828678746" to="-118575975#3"/>
    <trip id="motorcycle22" type="motorcycle_motorcycle" depart="170.23" departLane="best" from="295386152#3" to="118573606#3"/>
    <trip id="motorcycle23" type="motorcycle_motorcycle" depart="177.97" departLane="best" departSpeed="max" from="-295386152#8" to="-118575975#1"/>
    <trip id="motorcycle24" type="motorcycle_motorcycle" depart="185.71" departLane="best" departSpeed="max" from="641423230" to="295128790#9"/>
    <trip id="motorcycle25" type="motorcycle_motorcycle" depart="193.44" departLane="best" from="118575975#2" to="118573606#0"/>
    <trip id="motorcycle27" type="motorcycle_motorcycle" depart="208.92" departLane="best" departSpeed="max" from="689583179#0" to="693416739#0.11"/>
    <trip id="motorcycle29" type="motorcycle_motorcycle" depart="224.39" departLane="best" departSpeed="max" from="-696756023" to="-295386152#2"/>
    <trip id="motorcycle32" type="motorcycle_motorcycle" depart="247.61" departLane="best" from="695040105#0" to="695040105#0"/>
    <trip id="motorcycle33" type="motorcycle_motorcycle" depart="255.34" departLane="best" departSpeed="max" from="-828678746" to="-118575975#2"/>
    <trip id="motorcycle36" type="motorcycle_motorcycle" depart="278.56" departLane="best" departSpeed="max" from="695510006" to="1279915895#1"/>
    <trip id="motorcycle37" type="motorcycle_motorcycle" depart="286.30" departLane="best" from="689583179#1" to="295386152#6"/>
    <trip id="motorcycle39" type="motorcycle_motorcycle" depart="301.77" departLane="best" from="-828678749#0" to="118573606#6"/>
    <trip id="motorcycle44" type="motorcycle_motorcycle" depart="340.46" departLane="best" from="-295386152#6" to="-118575975#4"/>
    <trip id="motorcycle45" type="motorcycle_motorcycle" depart="348.20" departLane="best" departSpeed="max" from="-295386152#8" to="693885802#0"/>
    <trip id="motorcycle46" type="motorcycle_motorcycle" depart="355.93" departLane="best" departSpeed="max" from="694830396" to="302739240#0"/>
    <trip id="motorcycle47" type="motorcycle_motorcycle" depart="363.67" departLane="best" from="295386152#1" to="295386152#3"/>
    <trip id="motorcycle49" type="motorcycle_motorcycle" depart="379.15" departLane="best" from="E0" to="828678740"/>
    <trip id="motorcycle52" type="motorcycle_motorcycle" depart="402.36" departLane="best" from="-828678749#1" to="693885802#2"/>
    <trip id="motorcycle54" type="motorcycle_motorcycle" depart="417.84" departLane="best" from="295386152#1" to="828678748"/>
    <trip id="motorcycle56" type="motorcycle_motorcycle" depart="433.31" departLane="best" from="302739240#2" to="-828678745#0"/>
    <trip id="motorcycle57" type="motorcycle_motorcycle" depart="441.05" departLane="best" from="698936203#3" to="828678741#1"/>
    <trip id="motorcycle61" type="motorcycle_motorcycle" depart="472.00" departLane="best" from="694829084#1" to="408161670#13"/>
    <trip id="motorcycle62" type="motorcycle_motorcycle" depart="479.74" departLane="best" from="-118575972#2" to="295128790#1"/>
    <trip id="motorcycle63" type="motorcycle_motorcycle" depart="487.48" departLane="best" from="118575975#2" to="828678746"/>
    <trip id="motorcycle67" type="motorcycle_motorcycle" depart="518.43" departLane="best" from="-295386152#4" to="404718839"/>
    <trip id="motorcycle68" type="motorcycle_motorcycle" depart="526.16" departLane="best" from="-295386152#2" to="695030266"/>
    <trip id="motorcycle70" type="motorcycle_motorcycle" depart="541.64" departLane="best" from="-295386152#4" to="408161670#4"/>
    <trip id="motorcycle71" type="motorcycle_motorcycle" depart="549.38" departLane="best" from="828678749#0" to="828678741#1"/>
    <trip id="motorcycle74" type="motorcycle_motorcycle" depart="572.59" departLane="best" departSpeed="max" from="-828678743" to="118575975#6"/>
    <trip id="motorcycle77" type="motorcycle_motorcycle" depart="595.80" departLane="best" departSpeed="max" from="-404718839" to="118573606#10"/>
    <trip id="motorcycle78" type="motorcycle_motorcycle" depart="603.54" departLane="best" departSpeed="max" from="118575972#0" to="689583179#4"/>
    <trip id="motorcycle79" type="motorcycle_motorcycle" depart="611.28" departLane="best" departSpeed="max" from="-828678746" to="118573606#10"/>
    <trip id="motorcycle80" type="motorcycle_motorcycle" depart="619.02" departLane="best" from="-295386152#2" to="693885802#0"/>
    <trip id="motorcycle81" type="motorcycle_motorcycle" depart="626.75" departLane="best" departSpeed="max" from="-828678746" to="828678743"/>
    <trip id="motorcycle83" type="motorcycle_motorcycle" depart="642.23" departLane="best" departSpeed="max" from="-828678747" to="693885803#3"/>
    <trip id="motorcycle84" type="motorcycle_motorcycle" depart="649.97" departLane="best" from="-118575975#5" to="-641423230"/>
    <trip id="motorcycle85" type="motorcycle_motorcycle" depart="657.71" departLane="best" from="828678744" to="408161670#9"/>
    <trip id="motorcycle86" type="motorcycle_motorcycle" depart="665.44" departLane="best" from="-295386152#4" to="695040105#1"/>
    <trip id="motorcycle87" type="motorcycle_motorcycle" depart="673.18" departLane="best" from="694830397.22" to="-828678749#0"/>
    <trip id="motorcycle88" type="motorcycle_motorcycle" depart="680.92" departLane="best" from="-295386152#7" to="302739240#1"/>
    <trip id="motorcycle90" type="motorcycle_motorcycle" depart="696.39" departLane="best" from="693885803#2" to="693885803#3"/>
    <trip id="motorcycle92" type="motorcycle_motorcycle" depart="711.87" departLane="best" from="295128790#1" to="295128790#5"/>
    <trip id="motorcycle93" type="motorcycle_motorcycle" depart="719.61" departLane="best" from="695040105#3" to="118573606#6"/>
    <trip id="motorcycle94" type="motorcycle_motorcycle" depart="727.34" departLane="best" departSpeed="max" from="-828678742" to="35950897#2"/>
    <trip id="motorcycle96" type="motorcycle_motorcycle" depart="742.82" departLane="best" departSpeed="max" from="-828678748" to="828678746"/>
    <trip id="motorcycle100" type="motorcycle_motorcycle" depart="773.77" departLane="best" from="-828678749#1" to="828678746"/>
    <trip id="motorcycle101" type="motorcycle_motorcycle" depart="781.51" departLane="best" from="695040105#1" to="-828678744"/>
    <trip id="motorcycle102" type="motorcycle_motorcycle" depart="789.25" departLane="best" from="-295386152#7" to="118573606#1"/>
    <trip id="motorcycle104" type="motorcycle_motorcycle" depart="804.72" departLane="best" from="-118575975#4" to="E2"/>
    <trip id="motorcycle105" type="motorcycle_motorcycle" depart="812.46" departLane="best" from="828678749#0" to="695040105#1"/>
    <trip id="motorcycle106" type="motorcycle_motorcycle" depart="820.20" departLane="best" from="-295386152#1" to="302739240#0"/>
    <trip id="motorcycle107" type="motorcycle_motorcycle" depart="827.93" departLane="best" from="828678749#0" to="E4"/>
    <trip id="motorcycle109" type="motorcycle_motorcycle" depart="843.41" departLane="best" departSpeed="max" from="-696756023" to="-118575975#4"/>
    <trip id="motorcycle110" type="motorcycle_motorcycle" depart="851.15" departLane="best" from="-828678749#1" to="689583179#1"/>
    <trip id="motorcycle112" type="motorcycle_motorcycle" depart="866.62" departLane="best" from="-295386152#0" to="689583179#2"/>
    <trip id="motorcycle113" type="motorcycle_motorcycle" depart="874.36" departLane="best" from="302739240#2" to="779462187#1.9"/>
    <trip id="motorcycle114" type="motorcycle_motorcycle" depart="882.10" departLane="best" departSpeed="max" from="-696756023" to="828678749#0"/>
    <trip id="motorcycle115" type="motorcycle_motorcycle" depart="889.84" departLane="best" from="-295386152#3" to="-828678745#1"/>
    <trip id="motorcycle117" type="motorcycle_motorcycle" depart="905.31" departLane="best" departSpeed="max" from="-828678747" to="-372467078#0"/>
    <trip id="motorcycle118" type="motorcycle_motorcycle" depart="913.05" departLane="best" departSpeed="max" from="698936203#0" to="118573606#6"/>
    <trip id="motorcycle123" type="motorcycle_motorcycle" depart="951.74" departLane="best" departSpeed="max" from="-828678747" to="295386152#6"/>
    <trip id="motorcycle124" type="motorcycle_motorcycle" depart="959.48" departLane="best" from="689583179#4" to="118575975#4"/>
    <trip id="motorcycle126" type="motorcycle_motorcycle" depart="974.95" departLane="best" from="295386152#2" to="35950897#3"/>
    <trip id="motorcycle127" type="motorcycle_motorcycle" depart="982.69" departLane="best" from="E4" to="E4"/>
    <trip id="motorcycle128" type="motorcycle_motorcycle" depart="990.43" departLane="best" from="295386152#2" to="118573606#1"/>
    <trip id="motorcycle131" type="motorcycle_motorcycle" depart="1013.64" departLane="best" from="118575975#2" to="828678741#0"/>
    <trip id="motorcycle132" type="motorcycle_motorcycle" depart="1021.38" departLane="best" from="695040102#1" to="693885804#1"/>
    <trip id="motorcycle134" type="motorcycle_motorcycle" depart="1036.85" departLane="best" departSpeed="max" from="689583179#0" to="-118575972#0"/>
    <trip id="motorcycle135" type="motorcycle_motorcycle" depart="1044.59" departLane="best" from="695025562#1" to="-118575975#4"/>
    <trip id="motorcycle137" type="motorcycle_motorcycle" depart="1060.07" departLane="best" departSpeed="max" from="-695027208" to="-372467078#0"/>
    <trip id="motorcycle138" type="motorcycle_motorcycle" depart="1067.80" departLane="best" departSpeed="max" from="-295386152#8" to="408161670#5"/>
    <trip id="motorcycle141" type="motorcycle_motorcycle" depart="1091.02" departLane="best" departSpeed="max" from="641423230" to="118575972#1"/>
    <trip id="motorcycle142" type="motorcycle_motorcycle" depart="1098.75" departLane="best" from="302739240#0" to="828678743"/>
    <trip id="motorcycle143" type="motorcycle_motorcycle" depart="1106.49" departLane="best" from="695040105#1" to="-295386152#3"/>
    <trip id="motorcycle145" type="motorcycle_motorcycle" depart="1121.97" departLane="best" from="-118575972#2" to="695040102#1"/>
    <trip id="motorcycle146" type="motorcycle_motorcycle" depart="1129.71" departLane="best" departSpeed="max" from="641423230" to="118573606#9"/>
    <trip id="motorcycle149" type="motorcycle_motorcycle" depart="1152.92" departLane="best" from="-295386152#3" to="828678742"/>
    <trip id="motorcycle150" type="motorcycle_motorcycle" depart="1160.66" departLane="best" from="698936203#2" to="408161670#4"/>
    <trip id="motorcycle151" type="motorcycle_motorcycle" depart="1168.39" departLane="best" from="695040102#1" to="689583179#2"/>
    <trip id="motorcycle152" type="motorcycle_motorcycle" depart="1176.13" departLane="best" from="-695040102#0" to="372467078#1"/>
    <trip id="motorcycle154" type="motorcycle_motorcycle" depart="1191.61" departLane="best" departSpeed="max" from="694830396" to="828678740"/>
    <trip id="motorcycle155" type="motorcycle_motorcycle" depart="1199.34" departLane="best" from="698936203#1" to="118573606#0"/>
    <trip id="motorcycle156" type="motorcycle_motorcycle" depart="1207.08" departLane="best" departSpeed="max" from="-828678748" to="295386152#6"/>
    <trip id="motorcycle157" type="motorcycle_motorcycle" depart="1214.82" departLane="best" from="694829084#1" to="828678742"/>
    <trip id="motorcycle158" type="motorcycle_motorcycle" depart="1222.56" departLane="best" from="295128790#1" to="693416739#1"/>
    <trip id="motorcycle159" type="motorcycle_motorcycle" depart="1230.30" departLane="best" departSpeed="max" from="-696756023" to="828678746"/>
    <trip id="motorcycle161" type="motorcycle_motorcycle" depart="1245.77" departLane="best" from="695025559" to="828678742"/>
    <trip id="motorcycle162" type="motorcycle_motorcycle" depart="1253.51" departLane="best" from="-118575975#3" to="695025559"/>
    <trip id="motorcycle164" type="motorcycle_motorcycle" depart="1268.98" departLane="best" from="694830397" to="828678741#0"/>
    <trip id="motorcycle165" type="motorcycle_motorcycle" depart="1276.72" departLane="best" from="695025559" to="118575972#1"/>
    <trip id="motorcycle166" type="motorcycle_motorcycle" depart="1284.46" departLane="best" departSpeed="max" from="694830396" to="295386152#7"/>
    <trip id="motorcycle168" type="motorcycle_motorcycle" depart="1299.94" departLane="best" departSpeed="max" from="-828678746" to="696756023"/>
    <trip id="motorcycle169" type="motorcycle_motorcycle" depart="1307.67" departLane="best" from="-295386152#2" to="-118575975#5"/>
    <trip id="motorcycle170" type="motorcycle_motorcycle" depart="1315.41" departLane="best" departSpeed="max" from="694830396" to="118573606#12"/>
    <trip id="motorcycle171" type="motorcycle_motorcycle" depart="1323.15" departLane="best" from="118575975#2" to="-828678749#0"/>
    <trip id="motorcycle173" type="motorcycle_motorcycle" depart="1338.62" departLane="best" from="-828678749#1" to="-118575975#1"/>
    <trip id="motorcycle174" type="motorcycle_motorcycle" depart="1346.36" departLane="best" departSpeed="max" from="641423230" to="295386152#6"/>
    <trip id="motorcycle176" type="motorcycle_motorcycle" depart="1361.84" departLane="best" departSpeed="max" from="828678745#0" to="-372467078#0"/>
    <trip id="motorcycle177" type="motorcycle_motorcycle" depart="1369.57" departLane="best" from="E0" to="-828678745#0"/>
    <trip id="motorcycle178" type="motorcycle_motorcycle" depart="1377.31" departLane="best" from="828678749#0" to="118575972#1"/>
    <trip id="motorcycle179" type="motorcycle_motorcycle" depart="1385.05" departLane="best" departSpeed="max" from="-295386152#8" to="302739240#2"/>
    <trip id="motorcycle181" type="motorcycle_motorcycle" depart="1400.53" departLane="best" from="408161670#8" to="408161670#10"/>
    <trip id="motorcycle182" type="motorcycle_motorcycle" depart="1408.26" departLane="best" from="828678744" to="689583179#1"/>
    <trip id="motorcycle183" type="motorcycle_motorcycle" depart="1416.00" departLane="best" departSpeed="max" from="-828678748" to="693885804#1.60"/>
    <trip id="motorcycle184" type="motorcycle_motorcycle" depart="1423.74" departLane="best" from="-118575972#2" to="828678746"/>
    <trip id="motorcycle187" type="motorcycle_motorcycle" depart="1446.95" departLane="best" from="118575975#2" to="-295386152#0"/>
    <trip id="motorcycle188" type="motorcycle_motorcycle" depart="1454.69" departLane="best" from="689583179#2" to="295128790#10"/>
    <trip id="motorcycle193" type="motorcycle_motorcycle" depart="1493.38" departLane="best" departSpeed="max" from="-404718839" to="302739240#0"/>
    <trip id="motorcycle194" type="motorcycle_motorcycle" depart="1501.12" departLane="best" departSpeed="max" from="828678745#0" to="693885803#5"/>
    <trip id="motorcycle195" type="motorcycle_motorcycle" depart="1508.85" departLane="best" from="698936203#2" to="693416739#1"/>
    <trip id="motorcycle197" type="motorcycle_motorcycle" depart="1524.33" departLane="best" from="-118575972#2" to="118575975#2"/>
    <trip id="motorcycle199" type="motorcycle_motorcycle" depart="1539.80" departLane="best" from="689583179#1" to="372467078#0"/>
    <trip id="motorcycle201" type="motorcycle_motorcycle" depart="1555.28" departLane="best" from="-295386152#4" to="828678743"/>
    <trip id="motorcycle202" type="motorcycle_motorcycle" depart="1563.02" departLane="best" departSpeed="max" from="694830396" to="-828678745#0"/>
    <trip id="motorcycle203" type="motorcycle_motorcycle" depart="1570.75" departLane="best" from="-295386152#4" to="408161670#11"/>
    <trip id="motorcycle204" type="motorcycle_motorcycle" depart="1578.49" departLane="best" departSpeed="max" from="641423230" to="295128790#2"/>
    <trip id="motorcycle205" type="motorcycle_motorcycle" depart="1586.23" departLane="best" from="695025562#1" to="695027208"/>
    <trip id="motorcycle206" type="motorcycle_motorcycle" depart="1593.97" departLane="best" from="689583179#4" to="118573606#10"/>
    <trip id="motorcycle207" type="motorcycle_motorcycle" depart="1601.71" departLane="best" departSpeed="max" from="-828678743" to="-118575975#0"/>
    <trip id="motorcycle208" type="motorcycle_motorcycle" depart="1609.44" departLane="best" departSpeed="max" from="-828678747" to="372467078#1"/>
    <trip id="motorcycle209" type="motorcycle_motorcycle" depart="1617.18" departLane="best" from="695040105#1" to="-118575975#6"/>
    <trip id="motorcycle211" type="motorcycle_motorcycle" depart="1632.66" departLane="best" departSpeed="max" from="-828678742" to="693885803#9"/>
    <trip id="motorcycle212" type="motorcycle_motorcycle" depart="1640.39" departLane="best" from="302739240#1" to="118573606#6"/>
    <trip id="motorcycle213" type="motorcycle_motorcycle" depart="1648.13" departLane="best" from="689583179#1" to="-118575972#0"/>
    <trip id="motorcycle215" type="motorcycle_motorcycle" depart="1663.61" departLane="best" departSpeed="max" from="-295386152#8" to="302739240#1"/>
    <trip id="motorcycle216" type="motorcycle_motorcycle" depart="1671.35" departLane="best" departSpeed="max" from="-828678741#1" to="828678749#0"/>
    <trip id="motorcycle217" type="motorcycle_motorcycle" depart="1679.08" departLane="best" departSpeed="max" from="302751284" to="-118575975#5"/>
    <trip id="motorcycle218" type="motorcycle_motorcycle" depart="1686.82" departLane="best" departSpeed="max" from="-828678748" to="779462187#1.9"/>
    <trip id="motorcycle219" type="motorcycle_motorcycle" depart="1694.56" departLane="best" from="295386152#1" to="695511482#4"/>
    <trip id="motorcycle222" type="motorcycle_motorcycle" depart="1717.77" departLane="best" departSpeed="max" from="698936203#0" to="693416739#1"/>
    <trip id="motorcycle224" type="motorcycle_motorcycle" depart="1733.25" departLane="best" from="695040102#0" to="408161670#4"/>
    <trip id="motorcycle226" type="motorcycle_motorcycle" depart="1748.72" departLane="best" from="295386152#4" to="118573606#9"/>
    <trip id="motorcycle227" type="motorcycle_motorcycle" depart="1756.46" departLane="best" departSpeed="max" from="-828678748" to="693885802#2"/>
    <trip id="motorcycle229" type="motorcycle_motorcycle" depart="1771.94" departLane="best" departSpeed="max" from="641397122" to="-118575975#0"/>
    <trip id="motorcycle230" type="motorcycle_motorcycle" depart="1779.67" departLane="best" from="-295386152#3" to="-118575975#2"/>
    <trip id="motorcycle233" type="motorcycle_motorcycle" depart="1802.89" departLane="best" departSpeed="max" from="-828678746" to="693885803#9"/>
    <trip id="motorcycle234" type="motorcycle_motorcycle" depart="1810.62" departLane="best" from="693885802#2" to="828678740"/>
    <trip id="motorcycle239" type="motorcycle_motorcycle" depart="1849.31" departLane="best" from="695040105#2" to="695040102#0"/>
    <trip id="motorcycle240" type="motorcycle_motorcycle" depart="1857.05" departLane="best" from="-118575975#4" to="-118575972#0"/>
    <trip id="motorcycle241" type="motorcycle_motorcycle" depart="1864.79" departLane="best" from="118575972#1" to="695027208"/>
    <trip id="motorcycle242" type="motorcycle_motorcycle" depart="1872.53" departLane="best" from="695040105#2" to="828678748"/>
    <trip id="motorcycle245" type="motorcycle_motorcycle" depart="1895.74" departLane="best" from="118575975#5" to="118573606#10"/>
    <trip id="motorcycle247" type="motorcycle_motorcycle" depart="1911.21" departLane="best" departSpeed="max" from="118575972#0" to="693885803#5"/>
    <trip id="motorcycle249" type="motorcycle_motorcycle" depart="1926.69" departLane="best" from="295386152#3" to="-372467078#1"/>
    <trip id="motorcycle250" type="motorcycle_motorcycle" depart="1934.43" departLane="best" departSpeed="max" from="641397122" to="-118575975#1"/>
    <trip id="motorcycle251" type="motorcycle_motorcycle" depart="1942.16" departLane="best" from="118575975#6" to="408161670#8"/>
    <trip id="motorcycle252" type="motorcycle_motorcycle" depart="1949.90" departLane="best" from="-118575975#3" to="693885802#2"/>
    <trip id="motorcycle253" type="motorcycle_motorcycle" depart="1957.64" departLane="best" departSpeed="max" from="-695027208" to="35950897#3"/>
    <trip id="motorcycle254" type="motorcycle_motorcycle" depart="1965.38" departLane="best" from="-1255581684" to="295386152#2"/>
    <trip id="motorcycle255" type="motorcycle_motorcycle" depart="1973.12" departLane="best" from="-828678744" to="295128790#10"/>
    <trip id="motorcycle258" type="motorcycle_motorcycle" depart="1996.33" departLane="best" departSpeed="max" from="-828678748" to="295386152#2"/>
    <trip id="motorcycle259" type="motorcycle_motorcycle" depart="2004.07" departLane="best" from="118575975#2" to="408161670#3"/>
    <trip id="motorcycle261" type="motorcycle_motorcycle" depart="2019.54" departLane="best" departSpeed="max" from="689583179#0" to="695040105#0"/>
    <trip id="motorcycle262" type="motorcycle_motorcycle" depart="2027.28" departLane="best" departSpeed="max" from="689583179#0" to="695027208"/>
    <trip id="motorcycle263" type="motorcycle_motorcycle" depart="2035.02" departLane="best" departSpeed="max" from="828678745#0" to="-828678749#1"/>
    <trip id="motorcycle264" type="motorcycle_motorcycle" depart="2042.76" departLane="best" from="118575975#2" to="-695040102#1"/>
    <trip id="motorcycle265" type="motorcycle_motorcycle" depart="2050.49" departLane="best" departSpeed="max" from="-404718839" to="693885803#3"/>
    <trip id="motorcycle267" type="motorcycle_motorcycle" depart="2065.97" departLane="best" from="693885802#1" to="695040102#0"/>
    <trip id="motorcycle268" type="motorcycle_motorcycle" depart="2073.71" departLane="best" from="-828678741#0" to="693416739#0.11"/>
    <trip id="motorcycle270" type="motorcycle_motorcycle" depart="2089.18" departLane="best" from="695025562#1" to="828678749#1"/>
    <trip id="motorcycle271" type="motorcycle_motorcycle" depart="2096.92" departLane="best" departSpeed="max" from="-295386152#8" to="-118575975#1"/>
    <trip id="motorcycle273" type="motorcycle_motorcycle" depart="2112.39" departLane="best" from="828678749#0" to="295386152#6"/>
    <trip id="motorcycle274" type="motorcycle_motorcycle" depart="2120.13" departLane="best" from="693885802#3" to="295386152#1"/>
    <trip id="motorcycle276" type="motorcycle_motorcycle" depart="2135.61" departLane="best" departSpeed="max" from="-295386152#8" to="695040102#1"/>
    <trip id="motorcycle277" type="motorcycle_motorcycle" depart="2143.35" departLane="best" from="695040105#1" to="693416739#0"/>
    <trip id="motorcycle278" type="motorcycle_motorcycle" depart="2151.08" departLane="best" departSpeed="max" from="-404718839" to="E2"/>
    <trip id="motorcycle279" type="motorcycle_motorcycle" depart="2158.82" departLane="best" from="694829084#1" to="295128790#6"/>
    <trip id="motorcycle281" type="motorcycle_motorcycle" depart="2174.30" departLane="best" from="302739240#2" to="295128790#5"/>
    <trip id="motorcycle283" type="motorcycle_motorcycle" depart="2189.77" departLane="best" departSpeed="max" from="-295386152#8" to="828678749#0"/>
    <trip id="motorcycle284" type="motorcycle_motorcycle" depart="2197.51" departLane="best" departSpeed="max" from="641423230" to="698936203#2"/>
    <trip id="motorcycle285" type="motorcycle_motorcycle" depart="2205.25" departLane="best" from="693885802#2" to="302739240#2"/>
    <trip id="motorcycle287" type="motorcycle_motorcycle" depart="2220.72" departLane="best" from="-828678749#1" to="696756023"/>
    <trip id="motorcycle290" type="motorcycle_motorcycle" depart="2243.94" departLane="best" from="828678749#1" to="779462187#1.9"/>
    <trip id="motorcycle291" type="motorcycle_motorcycle" depart="2251.67" departLane="best" from="695040102#0" to="-295386152#2"/>
    <trip id="motorcycle293" type="motorcycle_motorcycle" depart="2267.15" departLane="best" from="295386152#3" to="693416739#0.11"/>
    <trip id="motorcycle294" type="motorcycle_motorcycle" depart="2274.89" departLane="best" from="-118575975#4" to="-118575975#1"/>
    <trip id="motorcycle295" type="motorcycle_motorcycle" depart="2282.62" departLane="best" from="695040105#1" to="-828678745#1"/>
    <trip id="motorcycle296" type="motorcycle_motorcycle" depart="2290.36" departLane="best" from="-828678744" to="695040105#3"/>
    <trip id="motorcycle297" type="motorcycle_motorcycle" depart="2298.10" departLane="best" departSpeed="max" from="118575972#0" to="828678741#1"/>
    <trip id="motorcycle298" type="motorcycle_motorcycle" depart="2305.84" departLane="best" from="693885802#1" to="-118575975#1"/>
    <trip id="motorcycle299" type="motorcycle_motorcycle" depart="2313.57" departLane="best" from="118575975#0" to="828678748"/>
    <trip id="motorcycle301" type="motorcycle_motorcycle" depart="2329.05" departLane="best" from="302739240#0" to="695030266"/>
    <trip id="motorcycle303" type="motorcycle_motorcycle" depart="2344.53" departLane="best" from="302739240#0" to="695040105#2"/>
    <trip id="motorcycle304" type="motorcycle_motorcycle" depart="2352.26" departLane="best" from="-295386152#7" to="118573606#10"/>
    <trip id="motorcycle305" type="motorcycle_motorcycle" depart="2360.00" departLane="best" from="693885802#0" to="-118575975#5"/>
    <trip id="motorcycle306" type="motorcycle_motorcycle" depart="2367.74" departLane="best" from="408161670#3" to="-372467078#1"/>
    <trip id="motorcycle309" type="motorcycle_motorcycle" depart="2390.95" departLane="best" from="693885802#1" to="-118575975#0"/>
    <trip id="motorcycle310" type="motorcycle_motorcycle" depart="2398.69" departLane="best" departSpeed="max" from="-828678748" to="-372467078#0"/>
    <trip id="motorcycle311" type="motorcycle_motorcycle" depart="2406.43" departLane="best" departSpeed="max" from="-828678742" to="-372467078#0"/>