<?xml version="1.0" encoding="UTF-8"?>

<!-- generated on 2025-06-17 11:36:44.112501 by randomTrips.py v1_22_0+0002-63e50f52594
<configuration>
    <net-file value="osm.net.xml.gz"/>
    <output-trip-file value="osm.motorcycle.trips.xml"/>
    <route-file value="osm.motorcycle.rou.xml"/>
    <prefix value="motorcycle"/>
    <trip-attributes value="departLane=&quot;best&quot;"/>
    <fringe-start-attributes value="departSpeed=&quot;max&quot;"/>
    <vehicle-class value="motorcycle"/>
    <fringe-factor value="2"/>
    <vclass value="motorcycle"/>
    <via-edge-types value="highway.motorway,highway.motorway_link,highway.trunk_link,highway.primary_link,highway.secondary_link,highway.tertiary_link"/>
    <max-distance value="1200.0"/>
    <remove-loops value="True"/>
    <validate value="True"/>
    <insertion-density value="40.0"/>
</configuration>
-->

<!-- generated on 2025-06-17 11:36:44 by Eclipse SUMO duarouter Version 1.22.0
<duarouterConfiguration xmlns:xsi="http://www.w3.org/2001/XMLSchema-instance" xsi:noNamespaceSchemaLocation="http://sumo.dlr.de/xsd/duarouterConfiguration.xsd">

    <input>
        <net-file value="osm.net.xml.gz"/>
        <route-files value="osm.motorcycle.trips.xml"/>
    </input>

    <output>
        <output-file value="osm.motorcycle.trips.xml.tmp"/>
        <alternatives-output value="NUL"/>
        <write-trips value="true"/>
    </output>

    <processing>
        <remove-loops value="true"/>
    </processing>

    <time>
        <begin value="0.0"/>
        <end value="3600.0"/>
    </time>

    <report>
        <no-warnings value="true"/>
        <ignore-errors value="true"/>
        <no-step-log value="true"/>
    </report>

</duarouterConfiguration>
-->

<routes xmlns:xsi="http://www.w3.org/2001/XMLSchema-instance" xsi:noNamespaceSchemaLocation="http://sumo.dlr.de/xsd/routes_file.xsd">
    <vType id="motorcycle_motorcycle" vClass="motorcycle"/>
    <trip id="motorcycle0" type="motorcycle_motorcycle" depart="0.00" departLane="best" departSpeed="max" from="641423230" to="-118575975#1"/>
    <trip id="motorcycle2" type="motorcycle_motorcycle" depart="15.35" departLane="best" from="693885803#3" to="693885803#3"/>
    <trip id="motorcycle3" type="motorcycle_motorcycle" depart="23.02" departLane="best" departSpeed="max" from="698936203#0" to="-295386152#2"/>
    <trip id="motorcycle5" type="motorcycle_motorcycle" depart="38.37" departLane="best" from="118575975#5" to="408161670#1"/>
    <trip id="motorcycle6" type="motorcycle_motorcycle" depart="46.05" departLane="best" from="-118575975#3" to="1096471623#0"/>
    <trip id="motorcycle7" type="motorcycle_motorcycle" depart="53.72" departLane="best" departSpeed="max" from="689583179#0" to="408161670#3"/>
    <trip id="motorcycle8" type="motorcycle_motorcycle" depart="61.40" departLane="best" from="-828678745#1" to="689583179#2"/>
    <trip id="motorcycle9" type="motorcycle_motorcycle" depart="69.07" departLane="best" from="694830397.22" to="-118575972#0"/>
    <trip id="motorcycle10" type="motorcycle_motorcycle" depart="76.75" departLane="best" from="694830397.22" to="693885803#9"/>
    <trip id="motorcycle11" type="motorcycle_motorcycle" depart="84.42" departLane="best" departSpeed="max" from="118575972#0" to="828678741#0"/>
    <trip id="motorcycle12" type="motorcycle_motorcycle" depart="92.10" departLane="best" from="828678749#0" to="295128790#5"/>
    <trip id="motorcycle13" type="motorcycle_motorcycle" depart="99.77" departLane="best" from="-295386152#7" to="-295386152#4"/>
    <trip id="motorcycle14" type="motorcycle_motorcycle" depart="107.44" departLane="best" from="695040105#1" to="693416739#0"/>
    <trip id="motorcycle15" type="motorcycle_motorcycle" depart="115.12" departLane="best" from="694830397.22" to="694830397.22"/>
    <trip id="motorcycle17" type="motorcycle_motorcycle" depart="130.47" departLane="best" from="118575975#4" to="408161670#4"/>
    <trip id="motorcycle18" type="motorcycle_motorcycle" depart="138.14" departLane="best" from="695040102#0" to="693416739#1"/>
    <trip id="motorcycle19" type="motorcycle_motorcycle" depart="145.82" departLane="best" from="695040105#3" to="408161670#9"/>
    <trip id="motorcycle20" type="motorcycle_motorcycle" depart="153.49" departLane="best" from="693885802#1" to="-118575975#4"/>
    <trip id="motorcycle21" type="motorcycle_motorcycle" depart="161.17" departLane="best" departSpeed="max" from="-828678746" to="-118575975#3"/>
    <trip id="motorcycle22" type="motorcycle_motorcycle" depart="168.84" departLane="best" from="-295386152#4" to="118573606#3"/>
    <trip id="motorcycle23" type="motorcycle_motorcycle" depart="176.52" departLane="best" departSpeed="max" from="-295386152#8" to="-118575975#1"/>
    <trip id="motorcycle24" type="motorcycle_motorcycle" depart="184.19" departLane="best" departSpeed="max" from="641423230" to="295128790#9"/>
    <trip id="motorcycle25" type="motorcycle_motorcycle" depart="191.87" departLane="best" from="118575975#3" to="118573606#0"/>
    <trip id="motorcycle27" type="motorcycle_motorcycle" depart="207.21" departLane="best" departSpeed="max" from="689583179#0" to="693416739#0.11"/>
    <trip id="motorcycle29" type="motorcycle_motorcycle" depart="222.56" departLane="best" departSpeed="max" from="-696756023" to="-295386152#2"/>
    <trip id="motorcycle32" type="motorcycle_motorcycle" depart="245.59" departLane="best" from="695040105#0" to="695040102#1"/>
    <trip id="motorcycle33" type="motorcycle_motorcycle" depart="253.26" departLane="best" departSpeed="max" from="-828678746" to="-118575975#2"/>
    <trip id="motorcycle36" type="motorcycle_motorcycle" depart="276.29" departLane="best" departSpeed="max" from="695510006" to="1279915895#1"/>
    <trip id="motorcycle37" type="motorcycle_motorcycle" depart="283.96" departLane="best" departSpeed="max" from="689583179#0" to="295386152#4"/>
    <trip id="motorcycle39" type="motorcycle_motorcycle" depart="299.31" departLane="best" from="-828678749#1" to="118573606#6"/>
    <trip id="motorcycle44" type="motorcycle_motorcycle" depart="337.68" departLane="best" from="-295386152#6" to="-118575975#4"/>
    <trip id="motorcycle45" type="motorcycle_motorcycle" depart="345.36" departLane="best" departSpeed="max" from="-295386152#8" to="693885802#0"/>
    <trip id="motorcycle46" type="motorcycle_motorcycle" depart="353.03" departLane="best" departSpeed="max" from="694830396" to="295386152#8"/>
    <trip id="motorcycle47" type="motorcycle_motorcycle" depart="360.71" departLane="best" from="295386152#1" to="295386152#2"/>
    <trip id="motorcycle49" type="motorcycle_motorcycle" depart="376.06" departLane="best" from="E0" to="828678740"/>
    <trip id="motorcycle52" type="motorcycle_motorcycle" depart="399.08" departLane="best" from="-828678749#1" to="693885802#2"/>
    <trip id="motorcycle54" type="motorcycle_motorcycle" depart="414.43" departLane="best" from="295386152#0" to="828678748"/>
    <trip id="motorcycle56" type="motorcycle_motorcycle" depart="429.78" departLane="best" from="302739240#1" to="-828678745#0"/>
    <trip id="motorcycle57" type="motorcycle_motorcycle" depart="437.45" departLane="best" from="698936203#3" to="828678741#1"/>
    <trip id="motorcycle62" type="motorcycle_motorcycle" depart="475.83" departLane="best" from="-118575972#2" to="295128790#10"/>
    <trip id="motorcycle63" type="motorcycle_motorcycle" depart="483.50" departLane="best" from="118575975#2" to="828678746"/>
    <trip id="motorcycle67" type="motorcycle_motorcycle" depart="514.20" departLane="best" from="-295386152#4" to="404718839"/>
    <trip id="motorcycle68" type="motorcycle_motorcycle" depart="521.87" departLane="best" from="-295386152#2" to="695030266"/>
    <trip id="motorcycle70" type="motorcycle_motorcycle" depart="537.22" departLane="best" from="295386152#4" to="408161670#4"/>
    <trip id="motorcycle71" type="motorcycle_motorcycle" depart="544.90" departLane="best" from="-828678749#1" to="828678741#1"/>
    <trip id="motorcycle74" type="motorcycle_motorcycle" depart="567.92" departLane="best" departSpeed="max" from="-828678743" to="1279915895#1"/>
    <trip id="motorcycle77" type="motorcycle_motorcycle" depart="590.94" departLane="best" departSpeed="max" from="-404718839" to="118573606#12"/>
    <trip id="motorcycle78" type="motorcycle_motorcycle" depart="598.62" departLane="best" departSpeed="max" from="118575972#0" to="689583179#2"/>
    <trip id="motorcycle79" type="motorcycle_motorcycle" depart="606.29" departLane="best" departSpeed="max" from="-828678746" to="118573606#10"/>
    <trip id="motorcycle80" type="motorcycle_motorcycle" depart="613.97" departLane="best" from="-295386152#2" to="693885802#0"/>
    <trip id="motorcycle81" type="motorcycle_motorcycle" depart="621.64" departLane="best" departSpeed="max" from="-828678746" to="828678743"/>
    <trip id="motorcycle83" type="motorcycle_motorcycle" depart="636.99" departLane="best" departSpeed="max" from="-828678747" to="693885803#2"/>
    <trip id="motorcycle84" type="motorcycle_motorcycle" depart="644.67" departLane="best" from="-118575975#5" to="-641423230"/>
    <trip id="motorcycle85" type="motorcycle_motorcycle" depart="652.34" departLane="best" from="828678744" to="408161670#8"/>
    <trip id="motorcycle86" type="motorcycle_motorcycle" depart="660.02" departLane="best" from="295386152#4" to="695040105#1"/>
    <trip id="motorcycle87" type="motorcycle_motorcycle" depart="667.69" departLane="best" from="694830397.22" to="-828678749#0"/>
    <trip id="motorcycle88" type="motorcycle_motorcycle" depart="675.37" departLane="best" from="-295386152#7" to="302739240#1"/>
    <trip id="motorcycle92" type="motorcycle_motorcycle" depart="706.06" departLane="best" from="295128790#1" to="295128790#5"/>
    <trip id="motorcycle93" type="motorcycle_motorcycle" depart="713.74" departLane="best" from="695040105#3" to="118573606#8"/>
    <trip id="motorcycle94" type="motorcycle_motorcycle" depart="721.41" departLane="best" departSpeed="max" from="-828678742" to="35950897#2"/>
    <trip id="motorcycle96" type="motorcycle_motorcycle" depart="736.76" departLane="best" departSpeed="max" from="-828678748" to="828678746"/>
    <trip id="motorcycle100" type="motorcycle_motorcycle" depart="767.46" departLane="best" from="-828678749#1" to="828678746"/>
    <trip id="motorcycle101" type="motorcycle_motorcycle" depart="775.14" departLane="best" from="695040105#1" to="-828678744"/>
    <trip id="motorcycle102" type="motorcycle_motorcycle" depart="782.81" departLane="best" from="-295386152#7" to="118573606#1"/>
    <trip id="motorcycle104" type="motorcycle_motorcycle" depart="798.16" departLane="best" from="-118575975#4" to="E2"/>
    <trip id="motorcycle105" type="motorcycle_motorcycle" depart="805.83" departLane="best" from="828678749#1" to="695040105#1"/>
    <trip id="motorcycle106" type="motorcycle_motorcycle" depart="813.51" departLane="best" from="-295386152#1" to="302739240#0"/>
    <trip id="motorcycle107" type="motorcycle_motorcycle" depart="821.18" departLane="best" from="828678749#0" to="E4"/>
    <trip id="motorcycle109" type="motorcycle_motorcycle" depart="836.53" departLane="best" departSpeed="max" from="-696756023" to="-118575975#4"/>
    <trip id="motorcycle110" type="motorcycle_motorcycle" depart="844.21" departLane="best" from="-828678749#1" to="689583179#1"/>
    <trip id="motorcycle112" type="motorcycle_motorcycle" depart="859.56" departLane="best" from="295386152#0" to="689583179#2"/>
    <trip id="motorcycle113" type="motorcycle_motorcycle" depart="867.23" departLane="best" from="302739240#1" to="779462187#1.9"/>
    <trip id="motorcycle114" type="motorcycle_motorcycle" depart="874.91" departLane="best" departSpeed="max" from="-696756023" to="828678749#0"/>
    <trip id="motorcycle115" type="motorcycle_motorcycle" depart="882.58" departLane="best" from="-295386152#4" to="-828678745#1"/>
    <trip id="motorcycle117" type="motorcycle_motorcycle" depart="897.93" departLane="best" departSpeed="max" from="-828678747" to="-372467078#0"/>
    <trip id="motorcycle118" type="motorcycle_motorcycle" depart="905.60" departLane="best" departSpeed="max" from="698936203#0" to="118573606#6"/>
    <trip id="motorcycle123" type="motorcycle_motorcycle" depart="943.98" departLane="best" departSpeed="max" from="-828678747" to="295386152#4"/>
    <trip id="motorcycle124" type="motorcycle_motorcycle" depart="951.65" departLane="best" from="689583179#4" to="118575975#5"/>
    <trip id="motorcycle126" type="motorcycle_motorcycle" depart="967.00" departLane="best" from="295386152#2" to="35950897#3"/>
    <trip id="motorcycle127" type="motorcycle_motorcycle" depart="974.68" departLane="best" from="E4" to="E4"/>
    <trip id="motorcycle128" type="motorcycle_motorcycle" depart="982.35" departLane="best" from="295386152#2" to="118573606#1"/>
    <trip id="motorcycle131" type="motorcycle_motorcycle" depart="1005.37" departLane="best" from="-118575975#3" to="828678741#0"/>
    <trip id="motorcycle132" type="motorcycle_motorcycle" depart="1013.05" departLane="best" from="695040102#0" to="693885804#1"/>
    <trip id="motorcycle134" type="motorcycle_motorcycle" depart="1028.40" departLane="best" departSpeed="max" from="689583179#0" to="-118575972#0"/>
    <trip id="motorcycle135" type="motorcycle_motorcycle" depart="1036.07" departLane="best" from="695025562#1" to="-118575975#5"/>
    <trip id="motorcycle137" type="motorcycle_motorcycle" depart="1051.42" departLane="best" departSpeed="max" from="-695027208" to="-372467078#0"/>
    <trip id="motorcycle138" type="motorcycle_motorcycle" depart="1059.10" departLane="best" departSpeed="max" from="-295386152#8" to="408161670#5"/>
    <trip id="motorcycle140" type="motorcycle_motorcycle" depart="1074.45" departLane="best" from="693885802#3" to="1096471623#0"/>
    <trip id="motorcycle141" type="motorcycle_motorcycle" depart="1082.12" departLane="best" departSpeed="max" from="641423230" to="118575972#1"/>
    <trip id="motorcycle142" type="motorcycle_motorcycle" depart="1089.79" departLane="best" from="-295386152#7" to="828678743"/>
    <trip id="motorcycle143" type="motorcycle_motorcycle" depart="1097.47" departLane="best" from="695040105#0" to="-295386152#3"/>
    <trip id="motorcycle145" type="motorcycle_motorcycle" depart="1112.82" departLane="best" from="-118575972#2" to="695040102#1"/>
    <trip id="motorcycle146" type="motorcycle_motorcycle" depart="1120.49" departLane="best" departSpeed="max" from="641423230" to="118575972#1"/>
    <trip id="motorcycle149" type="motorcycle_motorcycle" depart="1143.52" departLane="best" from="-295386152#3" to="828678742"/>
    <trip id="motorcycle150" type="motorcycle_motorcycle" depart="1151.19" departLane="best" from="698936203#2" to="408161670#3"/>
    <trip id="motorcycle151" type="motorcycle_motorcycle" depart="1158.87" departLane="best" from="695040102#1" to="689583179#1"/>
    <trip id="motorcycle152" type="motorcycle_motorcycle" depart="1166.54" departLane="best" from="-695040102#1" to="-372467078#1"/>
    <trip id="motorcycle154" type="motorcycle_motorcycle" depart="1181.89" departLane="best" departSpeed="max" from="694830396" to="828678740"/>
    <trip id="motorcycle155" type="motorcycle_motorcycle" depart="1189.56" departLane="best" from="698936203#1" to="118573606#0"/>
    <trip id="motorcycle156" type="motorcycle_motorcycle" depart="1197.24" departLane="best" departSpeed="max" from="-828678748" to="295386152#6"/>
    <trip id="motorcycle157" type="motorcycle_motorcycle" depart="1204.91" departLane="best" from="694829084#1" to="828678742"/>
    <trip id="motorcycle158" type="motorcycle_motorcycle" depart="1212.59" departLane="best" from="295128790#10" to="693416739#1"/>
    <trip id="motorcycle159" type="motorcycle_motorcycle" depart="1220.26" departLane="best" departSpeed="max" from="-696756023" to="828678746"/>
    <trip id="motorcycle161" type="motorcycle_motorcycle" depart="1235.61" departLane="best" from="695025559" to="828678741#1"/>
    <trip id="motorcycle162" type="motorcycle_motorcycle" depart="1243.29" departLane="best" from="-118575975#3" to="695025559"/>
    <trip id="motorcycle163" type="motorcycle_motorcycle" depart="1250.96" departLane="best" departSpeed="max" from="118575972#0" to="828678746"/>
    <trip id="motorcycle164" type="motorcycle_motorcycle" depart="1258.64" departLane="best" from="694830397" to="828678741#0"/>
    <trip id="motorcycle165" type="motorcycle_motorcycle" depart="1266.31" departLane="best" from="695025559" to="118575972#1"/>
    <trip id="motorcycle166" type="motorcycle_motorcycle" depart="1273.99" departLane="best" departSpeed="max" from="694830396" to="295386152#7"/>
    <trip id="motorcycle168" type="motorcycle_motorcycle" depart="1289.33" departLane="best" departSpeed="max" from="-828678746" to="696756023"/>
    <trip id="motorcycle169" type="motorcycle_motorcycle" depart="1297.01" departLane="best" from="-295386152#2" to="-118575975#6"/>
    <trip id="motorcycle170" type="motorcycle_motorcycle" depart="1304.68" departLane="best" departSpeed="max" from="694830396" to="118573606#12"/>
    <trip id="motorcycle171" type="motorcycle_motorcycle" depart="1312.36" departLane="best" from="118575975#2" to="-828678749#1"/>
    <trip id="motorcycle173" type="motorcycle_motorcycle" depart="1327.71" departLane="best" from="-828678749#1" to="-118575975#1"/>
    <trip id="motorcycle174" type="motorcycle_motorcycle" depart="1335.38" departLane="best" departSpeed="max" from="641423230" to="295386152#6"/>
    <trip id="motorcycle176" type="motorcycle_motorcycle" depart="1350.73" departLane="best" departSpeed="max" from="828678745#0" to="-372467078#0"/>
    <trip id="motorcycle177" type="motorcycle_motorcycle" depart="1358.41" departLane="best" from="E0" to="-828678745#0"/>
    <trip id="motorcycle178" type="motorcycle_motorcycle" depart="1366.08" departLane="best" from="828678749#0" to="118575972#1"/>
    <trip id="motorcycle179" type="motorcycle_motorcycle" depart="1373.76" departLane="best" departSpeed="max" from="-295386152#8" to="302739240#1"/>
    <trip id="motorcycle181" type="motorcycle_motorcycle" depart="1389.10" departLane="best" from="408161670#6" to="408161670#10"/>
    <trip id="motorcycle182" type="motorcycle_motorcycle" depart="1396.78" departLane="best" from="118575975#5" to="408161670#9"/>
    <trip id="motorcycle183" type="motorcycle_motorcycle" depart="1404.45" departLane="best" departSpeed="max" from="-828678748" to="693885804#1.60"/>
    <trip id="motorcycle184" type="motorcycle_motorcycle" depart="1412.13" departLane="best" from="-118575972#2" to="828678746"/>
    <trip id="motorcycle187" type="motorcycle_motorcycle" depart="1435.15" departLane="best" from="118575975#2" to="-295386152#0"/>
    <trip id="motorcycle188" type="motorcycle_motorcycle" depart="1442.83" departLane="best" from="689583179#2" to="695040105#0"/>
    <trip id="motorcycle193" type="motorcycle_motorcycle" depart="1481.20" departLane="best" departSpeed="max" from="-404718839" to="295386152#8"/>
    <trip id="motorcycle194" type="motorcycle_motorcycle" depart="1488.87" departLane="best" departSpeed="max" from="828678745#0" to="693885803#5"/>
    <trip id="motorcycle195" type="motorcycle_motorcycle" depart="1496.55" departLane="best" from="698936203#2" to="693416739#1"/>
    <trip id="motorcycle197" type="motorcycle_motorcycle" depart="1511.90" departLane="best" from="-118575972#2" to="118575975#3"/>
    <trip id="motorcycle199" type="motorcycle_motorcycle" depart="1527.25" departLane="best" departSpeed="max" from="689583179#0" to="35950897#3"/>
    <trip id="motorcycle201" type="motorcycle_motorcycle" depart="1542.60" departLane="best" from="-295386152#4" to="828678743"/>
    <trip id="motorcycle202" type="motorcycle_motorcycle" depart="1550.27" departLane="best" departSpeed="max" from="694830396" to="-828678745#0"/>
    <trip id="motorcycle203" type="motorcycle_motorcycle" depart="1557.95" departLane="best" from="-295386152#4" to="408161670#10"/>
    <trip id="motorcycle204" type="motorcycle_motorcycle" depart="1565.62" departLane="best" departSpeed="max" from="641423230" to="295128790#2"/>
    <trip id="motorcycle205" type="motorcycle_motorcycle" depart="1573.30" departLane="best" from="695025562#1" to="695027208"/>
    <trip id="motorcycle206" type="motorcycle_motorcycle" depart="1580.97" departLane="best" from="689583179#4" to="118573606#12"/>
    <trip id="motorcycle207" type="motorcycle_motorcycle" depart="1588.64" departLane="best" departSpeed="max" from="-828678743" to="-118575975#0"/>
    <trip id="motorcycle208" type="motorcycle_motorcycle" depart="1596.32" departLane="best" departSpeed="max" from="-828678747" to="372467078#1"/>
    <trip id="motorcycle209" type="motorcycle_motorcycle" depart="1603.99" departLane="best" from="695040105#1" to="-295386152#0"/>
    <trip id="motorcycle211" type="motorcycle_motorcycle" depart="1619.34" departLane="best" departSpeed="max" from="-828678742" to="693885803#9"/>
    <trip id="motorcycle212" type="motorcycle_motorcycle" depart="1627.02" departLane="best" from="302739240#0" to="118573606#6"/>
    <trip id="motorcycle213" type="motorcycle_motorcycle" depart="1634.69" departLane="best" departSpeed="max" from="689583179#0" to="-118575972#0"/>
    <trip id="motorcycle215" type="motorcycle_motorcycle" depart="1650.04" departLane="best" departSpeed="max" from="-295386152#8" to="302739240#0"/>
    <trip id="motorcycle216" type="motorcycle_motorcycle" depart="1657.72" departLane="best" departSpeed="max" from="-828678741#1" to="828678749#0"/>
    <trip id="motorcycle217" type="motorcycle_motorcycle" depart="1665.39" departLane="best" departSpeed="max" from="302751284" to="-118575975#5"/>
    <trip id="motorcycle218" type="motorcycle_motorcycle" depart="1673.07" departLane="best" departSpeed="max" from="-828678748" to="779462187#1.9"/>
    <trip id="motorcycle219" type="motorcycle_motorcycle" depart="1680.74" departLane="best" from="295386152#1" to="695511482#4"/>
    <trip id="motorcycle222" type="motorcycle_motorcycle" depart="1703.76" departLane="best" departSpeed="max" from="698936203#0" to="693416739#0.11"/>
    <trip id="motorcycle224" type="motorcycle_motorcycle" depart="1719.11" departLane="best" from="695040102#0" to="408161670#4"/>
    <trip id="motorcycle226" type="motorcycle_motorcycle" depart="1734.46" departLane="best" from="295386152#4" to="118573606#9"/>
    <trip id="motorcycle227" type="motorcycle_motorcycle" depart="1742.14" departLane="best" departSpeed="max" from="-828678748" to="693885802#1"/>
    <trip id="motorcycle229" type="motorcycle_motorcycle" depart="1757.49" departLane="best" departSpeed="max" from="641397122" to="-118575975#1"/>
    <trip id="motorcycle230" type="motorcycle_motorcycle" depart="1765.16" departLane="best" from="-295386152#3" to="-118575975#3"/>
    <trip id="motorcycle233" type="motorcycle_motorcycle" depart="1788.18" departLane="best" departSpeed="max" from="-828678746" to="693885803#8"/>
    <trip id="motorcycle234" type="motorcycle_motorcycle" depart="1795.86" departLane="best" from="693885802#2" to="828678740"/>
    <trip id="motorcycle239" type="motorcycle_motorcycle" depart="1834.23" departLane="best" from="695040105#2" to="695040102#0"/>
    <trip id="motorcycle240" type="motorcycle_motorcycle" depart="1841.91" departLane="best" from="828678744" to="-118575972#0"/>
    <trip id="motorcycle241" type="motorcycle_motorcycle" depart="1849.58" departLane="best" from="118575975#0" to="695027208"/>
    <trip id="motorcycle242" type="motorcycle_motorcycle" depart="1857.26" departLane="best" from="695040105#2" to="828678748"/>
    <trip id="motorcycle245" type="motorcycle_motorcycle" depart="1880.28" departLane="best" from="118575975#5" to="118573606#10"/>
    <trip id="motorcycle247" type="motorcycle_motorcycle" depart="1895.63" departLane="best" departSpeed="max" from="118575972#0" to="693885803#5"/>
    <trip id="motorcycle249" type="motorcycle_motorcycle" depart="1910.98" departLane="best" from="295386152#3" to="-372467078#1"/>
    <trip id="motorcycle250" type="motorcycle_motorcycle" depart="1918.65" departLane="best" departSpeed="max" from="641397122" to="-118575975#1"/>
    <trip id="motorcycle251" type="motorcycle_motorcycle" depart="1926.33" departLane="best" from="1279915895#1" to="408161670#6"/>
    <trip id="motorcycle252" type="motorcycle_motorcycle" depart="1934.00" departLane="best" from="-118575975#3" to="693885802#2"/>
    <trip id="motorcycle253" type="motorcycle_motorcycle" depart="1941.68" departLane="best" departSpeed="max" from="-695027208" to="35950897#3"/>
    <trip id="motorcycle254" type="motorcycle_motorcycle" depart="1949.35" departLane="best" from="-1255581684" to="295386152#2"/>
    <trip id="motorcycle255" type="motorcycle_motorcycle" depart="1957.03" departLane="best" from="-828678744" to="295128790#10"/>
    <trip id="motorcycle258" type="motorcycle_motorcycle" depart="1980.05" departLane="best" departSpeed="max" from="-828678748" to="295386152#2"/>
    <trip id="motorcycle259" type="motorcycle_motorcycle" depart="1987.72" departLane="best" from="118575975#2" to="408161670#2"/>
    <trip id="motorcycle261" type="motorcycle_motorcycle" depart="2003.07" departLane="best" departSpeed="max" from="689583179#0" to="695040105#0"/>
    <trip id="motorcycle262" type="motorcycle_motorcycle" depart="2010.75" departLane="best" departSpeed="max" from="689583179#0" to="695027208"/>
    <trip id="motorcycle263" type="motorcycle_motorcycle" depart="2018.42" departLane="best" departSpeed="max" from="828678745#0" to="1096471623#0"/>
    <trip id="motorcycle264" type="motorcycle_motorcycle" depart="2026.10" departLane="best" from="118575975#2" to="-695040102#1"/>
    <trip id="motorcycle265" type="motorcycle_motorcycle" depart="2033.77" departLane="best" departSpeed="max" from="-404718839" to="693885803#2"/>
    <trip id="motorcycle267" type="motorcycle_motorcycle" depart="2049.12" departLane="best" from="693885802#1" to="695040102#0"/>
    <trip id="motorcycle268" type="motorcycle_motorcycle" depart="2056.80" departLane="best" from="-828678741#0" to="693416739#0"/>
    <trip id="motorcycle270" type="motorcycle_motorcycle" depart="2072.14" departLane="best" from="695025562#1" to="828678749#1"/>
    <trip id="motorcycle271" type="motorcycle_motorcycle" depart="2079.82" departLane="best" departSpeed="max" from="-295386152#8" to="-118575975#1"/>
    <trip id="motorcycle273" type="motorcycle_motorcycle" depart="2095.17" departLane="best" from="828678749#0" to="-295386152#4"/>
    <trip id="motorcycle274" type="motorcycle_motorcycle" depart="2102.84" departLane="best" from="693885802#3" to="295386152#1"/>
    <trip id="motorcycle275" type="motorcycle_motorcycle" depart="2110.52" departLane="best" from="693416739#0.11" to="693416739#1"/>
    <trip id="motorcycle276" type="motorcycle_motorcycle" depart="2118.19" departLane="best" departSpeed="max" from="-295386152#8" to="695040102#1"/>
    <trip id="motorcycle277" type="motorcycle_motorcycle" depart="2125.87" departLane="best" from="695040105#1" to="689583179#5"/>
    <trip id="motorcycle278" type="motorcycle_motorcycle" depart="2133.54" departLane="best" departSpeed="max" from="-404718839" to="E2"/>
    <trip id="motorcycle279" type="motorcycle_motorcycle" depart="2141.22" departLane="best" from="694829084#1" to="295128790#6"/>
    <trip id="motorcycle281" type="motorcycle_motorcycle" depart="2156.57" departLane="best" from="302739240#2" to="295128790#5"/>
    <trip id="motorcycle283" type="motorcycle_motorcycle" depart="2171.91" departLane="best" departSpeed="max" from="-295386152#8" to="828678749#0"/>
    <trip id="motorcycle284" type="motorcycle_motorcycle" depart="2179.59" departLane="best" departSpeed="max" from="641423230" to="698936203#2"/>
    <trip id="motorcycle285" type="motorcycle_motorcycle" depart="2187.26" departLane="best" from="693885802#2" to="302739240#2"/>
    <trip id="motorcycle288" type="motorcycle_motorcycle" depart="2210.29" departLane="best" from="372467078#0" to="372467078#1"/>
    <trip id="motorcycle290" type="motorcycle_motorcycle" depart="2225.64" departLane="best" from="828678749#1" to="779462187#1.9"/>
    <trip id="motorcycle291" type="motorcycle_motorcycle" depart="2233.31" departLane="best" from="695040102#0" to="-295386152#2"/>
    <trip id="motorcycle293" type="motorcycle_motorcycle" depart="2248.66" departLane="best" from="295386152#2" to="693416739#0.11"/>
    <trip id="motorcycle294" type="motorcycle_motorcycle" depart="2256.34" departLane="best" from="-118575975#4" to="-118575975#1"/>
    <trip id="motorcycle295" type="motorcycle_motorcycle" depart="2264.01" departLane="best" from="695040105#1" to="-828678745#1"/>
    <trip id="motorcycle296" type="motorcycle_motorcycle" depart="2271.68" departLane="best" from="-828678744" to="695040105#3"/>
    <trip id="motorcycle297" type="motorcycle_motorcycle" depart="2279.36" departLane="best" departSpeed="max" from="118575972#0" to="828678741#1"/>
    <trip id="motorcycle298" type="motorcycle_motorcycle" depart="2287.03" departLane="best" from="693885802#1" to="-118575975#1"/>
    <trip id="motorcycle299" type="motorcycle_motorcycle" depart="2294.71" departLane="best" from="118575975#0" to="828678748"/>
    <trip id="motorcycle301" type="motorcycle_motorcycle" depart="2310.06" departLane="best" from="-295386152#7" to="695030266"/>
    <trip id="motorcycle303" type="motorcycle_motorcycle" depart="2325.41" departLane="best" from="302739240#0" to="695040105#2"/>
    <trip id="motorcycle304" type="motorcycle_motorcycle" depart="2333.08" departLane="best" from="-295386152#7" to="118573606#10"/>
    <trip id="motorcycle306" type="motorcycle_motorcycle" depart="2348.43" departLane="best" from="408161670#2" to="-372467078#1"/>
    <trip id="motorcycle309" type="motorcycle_motorcycle" depart="2371.45" departLane="best" from="693885802#1" to="-118575975#0"/>