<?xml version="1.0" encoding="UTF-8"?>

<!-- generated on 2025-07-01 14:30:09.817977 by randomTrips.py v1_23_1+0000-676720d13f6
<configuration>
    <net-file value="osm.net.xml.gz"/>
    <output-trip-file value="osm.motorcycle.trips.xml"/>
    <route-file value="osm.motorcycle.rou.xml"/>
    <prefix value="motorcycle"/>
    <trip-attributes value="departLane=&quot;best&quot;"/>
    <fringe-start-attributes value="departSpeed=&quot;max&quot;"/>
    <vehicle-class value="motorcycle"/>
    <fringe-factor value="2"/>
    <edge-permission value="motorcycle"/>
    <via-edge-types value="highway.motorway,highway.motorway_link,highway.trunk_link,highway.primary_link,highway.secondary_link,highway.tertiary_link"/>
    <max-distance value="1200.0"/>
    <remove-loops value="True"/>
    <validate value="True"/>
    <insertion-density value="40.0"/>
</configuration>
-->

<routes xmlns:xsi="http://www.w3.org/2001/XMLSchema-instance" xsi:noNamespaceSchemaLocation="http://sumo.dlr.de/xsd/routes_file.xsd">
    <vType id="motorcycle_motorcycle" vClass="motorcycle"/>
    <trip id="motorcycle0" depart="0.00" from="641423230" to="-118575975#1" departLane="best" type="motorcycle_motorcycle" departSpeed="max"/>
    <trip id="motorcycle1" depart="7.74" from="693885803#3" to="693885803#5" departLane="best" type="motorcycle_motorcycle"/>
    <trip id="motorcycle2" depart="15.48" from="698936203#0" to="-295386152#2" departLane="best" type="motorcycle_motorcycle" departSpeed="max"/>
    <trip id="motorcycle3" depart="23.21" from="-828678745#1" to="408161670#1" departLane="best" type="motorcycle_motorcycle"/>
    <trip id="motorcycle4" depart="30.95" from="-118575975#3" to="-828678749#1" departLane="best" type="motorcycle_motorcycle"/>
    <trip id="motorcycle5" depart="38.69" from="689583179#0" to="408161670#4" departLane="best" type="motorcycle_motorcycle" departSpeed="max"/>
    <trip id="motorcycle6" depart="46.43" from="-828678745#1" to="689583179#4" departLane="best" type="motorcycle_motorcycle"/>
    <trip id="motorcycle7" depart="54.16" from="695025559" to="-118575972#0" departLane="best" type="motorcycle_motorcycle"/>
    <trip id="motorcycle8" depart="61.90" from="694830397.22" to="693885803#9" departLane="best" type="motorcycle_motorcycle"/>
    <trip id="motorcycle9" depart="69.64" from="118575972#0" to="-695040102#1" departLane="best" type="motorcycle_motorcycle" departSpeed="max"/>
    <trip id="motorcycle10" depart="77.38" from="828678749#0" to="295128790#2" departLane="best" type="motorcycle_motorcycle"/>
    <trip id="motorcycle11" depart="85.11" from="-295386152#7" to="-295386152#4" departLane="best" type="motorcycle_motorcycle"/>
    <trip id="motorcycle12" depart="92.85" from="695040105#1" to="693416739#0" departLane="best" type="motorcycle_motorcycle"/>
    <trip id="motorcycle13" depart="100.59" from="694830397.22" to="694830397.22" departLane="best" type="motorcycle_motorcycle"/>
    <trip id="motorcycle14" depart="108.33" from="118575975#4" to="408161670#5" departLane="best" type="motorcycle_motorcycle"/>
    <trip id="motorcycle15" depart="116.07" from="695040102#0" to="693416739#1" departLane="best" type="motorcycle_motorcycle"/>
    <trip id="motorcycle16" depart="123.80" from="693885802#2" to="-118575975#4" departLane="best" type="motorcycle_motorcycle"/>
    <trip id="motorcycle17" depart="131.54" from="-828678746" to="118575975#3" departLane="best" type="motorcycle_motorcycle" departSpeed="max"/>
    <trip id="motorcycle18" depart="139.28" from="-295386152#3" to="118573606#3" departLane="best" type="motorcycle_motorcycle"/>
    <trip id="motorcycle19" depart="147.02" from="-295386152#8" to="118575975#1" departLane="best" type="motorcycle_motorcycle" departSpeed="max"/>
    <trip id="motorcycle20" depart="154.75" from="641423230" to="295128790#9" departLane="best" type="motorcycle_motorcycle" departSpeed="max"/>
    <trip id="motorcycle21" depart="162.49" from="118575975#2" to="118573606#0" departLane="best" type="motorcycle_motorcycle"/>
    <trip id="motorcycle22" depart="170.23" from="689583179#0" to="693416739#0.11" departLane="best" type="motorcycle_motorcycle" departSpeed="max"/>
    <trip id="motorcycle23" depart="177.97" from="-696756023" to="295386152#2" departLane="best" type="motorcycle_motorcycle" departSpeed="max"/>
    <trip id="motorcycle24" depart="185.71" from="695040105#0" to="695040105#0" departLane="best" type="motorcycle_motorcycle"/>
    <trip id="motorcycle25" depart="193.44" from="-828678746" to="-118575975#2" departLane="best" type="motorcycle_motorcycle" departSpeed="max"/>
    <trip id="motorcycle26" depart="201.18" from="695510006" to="1279915895#1" departLane="best" type="motorcycle_motorcycle" departSpeed="max"/>
    <trip id="motorcycle27" depart="208.92" from="689583179#1" to="295386152#6" departLane="best" type="motorcycle_motorcycle"/>
    <trip id="motorcycle28" depart="216.66" from="-828678749#0" to="118573606#6" departLane="best" type="motorcycle_motorcycle"/>
    <trip id="motorcycle29" depart="224.39" from="-295386152#6" to="-118575975#4" departLane="best" type="motorcycle_motorcycle"/>
    <trip id="motorcycle30" depart="232.13" from="694830396" to="302739240#0" departLane="best" type="motorcycle_motorcycle" departSpeed="max"/>
    <trip id="motorcycle31" depart="239.87" from="-295386152#1" to="295386152#3" departLane="best" type="motorcycle_motorcycle"/>
    <trip id="motorcycle32" depart="247.61" from="E0" to="828678740" departLane="best" type="motorcycle_motorcycle"/>
    <trip id="motorcycle33" depart="255.34" from="-828678749#1" to="693885802#2" departLane="best" type="motorcycle_motorcycle"/>
    <trip id="motorcycle34" depart="263.08" from="295386152#1" to="828678748" departLane="best" type="motorcycle_motorcycle"/>
    <trip id="motorcycle35" depart="270.82" from="302739240#2" to="-828678745#0" departLane="best" type="motorcycle_motorcycle"/>
    <trip id="motorcycle36" depart="278.56" from="698936203#3" to="828678741#1" departLane="best" type="motorcycle_motorcycle"/>
    <trip id="motorcycle37" depart="286.30" from="694829084#1" to="408161670#13" departLane="best" type="motorcycle_motorcycle"/>
    <trip id="motorcycle38" depart="294.03" from="-118575972#2" to="295128790#1" departLane="best" type="motorcycle_motorcycle"/>
    <trip id="motorcycle39" depart="301.77" from="-118575975#2" to="828678746" departLane="best" type="motorcycle_motorcycle"/>
    <trip id="motorcycle40" depart="309.51" from="-295386152#4" to="404718839" departLane="best" type="motorcycle_motorcycle"/>
    <trip id="motorcycle41" depart="317.25" from="-295386152#2" to="695030266" departLane="best" type="motorcycle_motorcycle"/>
    <trip id="motorcycle42" depart="324.98" from="295386152#4" to="408161670#4" departLane="best" type="motorcycle_motorcycle"/>
    <trip id="motorcycle43" depart="332.72" from="-828678749#0" to="828678741#1" departLane="best" type="motorcycle_motorcycle"/>
    <trip id="motorcycle44" depart="340.46" from="-828678743" to="118575975#6" departLane="best" type="motorcycle_motorcycle" departSpeed="max"/>
    <trip id="motorcycle45" depart="348.20" from="-404718839" to="118573606#10" departLane="best" type="motorcycle_motorcycle" departSpeed="max"/>
    <trip id="motorcycle46" depart="355.93" from="118575972#0" to="689583179#4" departLane="best" type="motorcycle_motorcycle" departSpeed="max"/>
    <trip id="motorcycle47" depart="363.67" from="-828678746" to="118573606#10" departLane="best" type="motorcycle_motorcycle" departSpeed="max"/>
    <trip id="motorcycle48" depart="371.41" from="-828678746" to="828678743" departLane="best" type="motorcycle_motorcycle" departSpeed="max"/>
    <trip id="motorcycle49" depart="379.15" from="-828678747" to="693885803#3" departLane="best" type="motorcycle_motorcycle" departSpeed="max"/>
    <trip id="motorcycle50" depart="386.89" from="-828678744" to="-641423230" departLane="best" type="motorcycle_motorcycle"/>
    <trip id="motorcycle51" depart="394.62" from="828678744" to="408161670#9" departLane="best" type="motorcycle_motorcycle"/>
    <trip id="motorcycle52" depart="402.36" from="295386152#4" to="695040105#1" departLane="best" type="motorcycle_motorcycle"/>
    <trip id="motorcycle53" depart="410.10" from="694830397.22" to="-828678749#0" departLane="best" type="motorcycle_motorcycle"/>
    <trip id="motorcycle54" depart="417.84" from="-295386152#7" to="302739240#1" departLane="best" type="motorcycle_motorcycle"/>
    <trip id="motorcycle55" depart="425.57" from="693885803#2" to="693885803#3" departLane="best" type="motorcycle_motorcycle"/>
    <trip id="motorcycle56" depart="433.31" from="295128790#1" to="295128790#5" departLane="best" type="motorcycle_motorcycle"/>
    <trip id="motorcycle57" depart="441.05" from="695040105#3" to="118573606#6" departLane="best" type="motorcycle_motorcycle"/>
    <trip id="motorcycle58" depart="448.79" from="-828678742" to="35950897#2" departLane="best" type="motorcycle_motorcycle" departSpeed="max"/>
    <trip id="motorcycle59" depart="456.52" from="-828678748" to="828678746" departLane="best" type="motorcycle_motorcycle" departSpeed="max"/>
    <trip id="motorcycle60" depart="464.26" from="828678749#1" to="828678746" departLane="best" type="motorcycle_motorcycle"/>
    <trip id="motorcycle61" depart="472.00" from="695040105#1" to="-828678744" departLane="best" type="motorcycle_motorcycle"/>
    <trip id="motorcycle62" depart="479.74" from="295386152#7" to="118573606#1" departLane="best" type="motorcycle_motorcycle"/>
    <trip id="motorcycle63" depart="487.48" from="118575975#4" to="E2" departLane="best" type="motorcycle_motorcycle"/>
    <trip id="motorcycle64" depart="495.21" from="-828678749#0" to="695040105#1" departLane="best" type="motorcycle_motorcycle"/>
    <trip id="motorcycle65" depart="502.95" from="295386152#1" to="302739240#0" departLane="best" type="motorcycle_motorcycle"/>
    <trip id="motorcycle66" depart="510.69" from="828678749#0" to="E4" departLane="best" type="motorcycle_motorcycle"/>
    <trip id="motorcycle67" depart="518.43" from="-696756023" to="118575975#4" departLane="best" type="motorcycle_motorcycle" departSpeed="max"/>
    <trip id="motorcycle68" depart="526.16" from="828678749#1" to="689583179#1" departLane="best" type="motorcycle_motorcycle"/>
    <trip id="motorcycle69" depart="533.90" from="-295386152#0" to="689583179#2" departLane="best" type="motorcycle_motorcycle"/>
    <trip id="motorcycle70" depart="541.64" from="302739240#2" to="779462187#1.9" departLane="best" type="motorcycle_motorcycle"/>
    <trip id="motorcycle71" depart="549.38" from="-696756023" to="828678749#0" departLane="best" type="motorcycle_motorcycle" departSpeed="max"/>
    <trip id="motorcycle72" depart="557.12" from="-295386152#3" to="-828678745#1" departLane="best" type="motorcycle_motorcycle"/>
    <trip id="motorcycle73" depart="564.85" from="-828678747" to="-372467078#0" departLane="best" type="motorcycle_motorcycle" departSpeed="max"/>
    <trip id="motorcycle74" depart="572.59" from="698936203#0" to="118573606#6" departLane="best" type="motorcycle_motorcycle" departSpeed="max"/>
    <trip id="motorcycle75" depart="580.33" from="-828678747" to="295386152#6" departLane="best" type="motorcycle_motorcycle" departSpeed="max"/>
    <trip id="motorcycle76" depart="588.07" from="689583179#4" to="118575975#4" departLane="best" type="motorcycle_motorcycle"/>
    <trip id="motorcycle77" depart="595.80" from="-295386152#2" to="35950897#3" departLane="best" type="motorcycle_motorcycle"/>
    <trip id="motorcycle78" depart="603.54" from="E4" to="E4" departLane="best" type="motorcycle_motorcycle"/>
    <trip id="motorcycle79" depart="611.28" from="-295386152#2" to="118573606#1" departLane="best" type="motorcycle_motorcycle"/>
    <trip id="motorcycle80" depart="619.02" from="118575975#2" to="-828678741#0" departLane="best" type="motorcycle_motorcycle"/>
    <trip id="motorcycle81" depart="626.75" from="695040102#1" to="693885804#1" departLane="best" type="motorcycle_motorcycle"/>
    <trip id="motorcycle82" depart="634.49" from="689583179#0" to="-118575972#0" departLane="best" type="motorcycle_motorcycle" departSpeed="max"/>
    <trip id="motorcycle83" depart="642.23" from="695025562#1" to="118575975#4" departLane="best" type="motorcycle_motorcycle"/>
    <trip id="motorcycle84" depart="649.97" from="-695027208" to="-372467078#0" departLane="best" type="motorcycle_motorcycle" departSpeed="max"/>
    <trip id="motorcycle85" depart="657.71" from="-295386152#8" to="408161670#5" departLane="best" type="motorcycle_motorcycle" departSpeed="max"/>
    <trip id="motorcycle86" depart="665.44" from="641423230" to="118575972#1" departLane="best" type="motorcycle_motorcycle" departSpeed="max"/>
    <trip id="motorcycle87" depart="673.18" from="302739240#0" to="828678743" departLane="best" type="motorcycle_motorcycle"/>
    <trip id="motorcycle88" depart="680.92" from="695040105#1" to="-295386152#3" departLane="best" type="motorcycle_motorcycle"/>
    <trip id="motorcycle89" depart="688.66" from="-118575972#2" to="695040102#1" departLane="best" type="motorcycle_motorcycle"/>
    <trip id="motorcycle90" depart="696.39" from="641423230" to="118573606#9" departLane="best" type="motorcycle_motorcycle" departSpeed="max"/>
    <trip id="motorcycle91" depart="704.13" from="-295386152#3" to="828678742" departLane="best" type="motorcycle_motorcycle"/>
    <trip id="motorcycle92" depart="711.87" from="698936203#2" to="408161670#4" departLane="best" type="motorcycle_motorcycle"/>
    <trip id="motorcycle93" depart="719.61" from="695040102#1" to="689583179#2" departLane="best" type="motorcycle_motorcycle"/>
    <trip id="motorcycle94" depart="727.34" from="-695040102#0" to="-372467078#1" departLane="best" type="motorcycle_motorcycle"/>
    <trip id="motorcycle95" depart="735.08" from="694830396" to="828678740" departLane="best" type="motorcycle_motorcycle" departSpeed="max"/>
    <trip id="motorcycle96" depart="742.82" from="698936203#1" to="118573606#0" departLane="best" type="motorcycle_motorcycle"/>
    <trip id="motorcycle97" depart="750.56" from="-828678748" to="-295386152#6" departLane="best" type="motorcycle_motorcycle" departSpeed="max"/>
    <trip id="motorcycle98" depart="758.30" from="694829084#1" to="828678742" departLane="best" type="motorcycle_motorcycle"/>
    <trip id="motorcycle99" depart="766.03" from="295128790#1" to="693416739#1" departLane="best" type="motorcycle_motorcycle"/>
    <trip id="motorcycle100" depart="773.77" from="-696756023" to="828678746" departLane="best" type="motorcycle_motorcycle" departSpeed="max"/>
    <trip id="motorcycle101" depart="781.51" from="695025559" to="828678742" departLane="best" type="motorcycle_motorcycle"/>
    <trip id="motorcycle102" depart="789.25" from="694830397" to="828678741#0" departLane="best" type="motorcycle_motorcycle"/>
    <trip id="motorcycle103" depart="796.98" from="695025559" to="118575972#1" departLane="best" type="motorcycle_motorcycle"/>
    <trip id="motorcycle104" depart="804.72" from="694830396" to="-295386152#7" departLane="best" type="motorcycle_motorcycle" departSpeed="max"/>
    <trip id="motorcycle105" depart="812.46" from="-828678746" to="696756023" departLane="best" type="motorcycle_motorcycle" departSpeed="max"/>
    <trip id="motorcycle106" depart="820.20" from="295386152#2" to="118575975#5" departLane="best" type="motorcycle_motorcycle"/>
    <trip id="motorcycle107" depart="827.93" from="694830396" to="118573606#12" departLane="best" type="motorcycle_motorcycle" departSpeed="max"/>
    <trip id="motorcycle108" depart="835.67" from="-118575975#2" to="-828678749#0" departLane="best" type="motorcycle_motorcycle"/>
    <trip id="motorcycle109" depart="843.41" from="828678749#1" to="118575975#1" departLane="best" type="motorcycle_motorcycle"/>
    <trip id="motorcycle110" depart="851.15" from="641423230" to="295386152#6" departLane="best" type="motorcycle_motorcycle" departSpeed="max"/>
    <trip id="motorcycle111" depart="858.89" from="828678745#0" to="-372467078#0" departLane="best" type="motorcycle_motorcycle" departSpeed="max"/>
    <trip id="motorcycle112" depart="866.62" from="E0" to="-828678745#0" departLane="best" type="motorcycle_motorcycle"/>
    <trip id="motorcycle113" depart="874.36" from="828678749#0" to="118575972#1" departLane="best" type="motorcycle_motorcycle"/>
    <trip id="motorcycle114" depart="882.10" from="-295386152#8" to="302739240#2" departLane="best" type="motorcycle_motorcycle" departSpeed="max"/>
    <trip id="motorcycle115" depart="889.84" from="408161670#8" to="408161670#10" departLane="best" type="motorcycle_motorcycle"/>
    <trip id="motorcycle116" depart="897.57" from="118575975#5" to="689583179#1" departLane="best" type="motorcycle_motorcycle"/>
    <trip id="motorcycle117" depart="905.31" from="-828678748" to="693885804#1.60" departLane="best" type="motorcycle_motorcycle" departSpeed="max"/>
    <trip id="motorcycle118" depart="913.05" from="-118575972#2" to="828678746" departLane="best" type="motorcycle_motorcycle"/>
    <trip id="motorcycle119" depart="920.79" from="118575975#2" to="-295386152#0" departLane="best" type="motorcycle_motorcycle"/>
    <trip id="motorcycle120" depart="928.53" from="689583179#2" to="295128790#10" departLane="best" type="motorcycle_motorcycle"/>
    <trip id="motorcycle121" depart="936.26" from="-404718839" to="302739240#0" departLane="best" type="motorcycle_motorcycle" departSpeed="max"/>
    <trip id="motorcycle122" depart="944.00" from="828678745#0" to="693885803#5" departLane="best" type="motorcycle_motorcycle" departSpeed="max"/>
    <trip id="motorcycle123" depart="951.74" from="698936203#2" to="693416739#1" departLane="best" type="motorcycle_motorcycle"/>
    <trip id="motorcycle124" depart="959.48" from="-118575972#2" to="118575975#2" departLane="best" type="motorcycle_motorcycle"/>
    <trip id="motorcycle125" depart="967.21" from="689583179#1" to="372467078#0" departLane="best" type="motorcycle_motorcycle"/>
    <trip id="motorcycle126" depart="974.95" from="295386152#4" to="828678743" departLane="best" type="motorcycle_motorcycle"/>
    <trip id="motorcycle127" depart="982.69" from="694830396" to="-828678745#0" departLane="best" type="motorcycle_motorcycle" departSpeed="max"/>
    <trip id="motorcycle128" depart="990.43" from="-295386152#4" to="408161670#11" departLane="best" type="motorcycle_motorcycle"/>
    <trip id="motorcycle129" depart="998.16" from="641423230" to="295128790#2" departLane="best" type="motorcycle_motorcycle" departSpeed="max"/>
    <trip id="motorcycle130" depart="1005.90" from="695025562#1" to="695027208" departLane="best" type="motorcycle_motorcycle"/>
    <trip id="motorcycle131" depart="1013.64" from="689583179#4" to="118573606#10" departLane="best" type="motorcycle_motorcycle"/>
    <trip id="motorcycle132" depart="1021.38" from="-828678743" to="-118575975#0" departLane="best" type="motorcycle_motorcycle" departSpeed="max"/>
    <trip id="motorcycle133" depart="1029.12" from="-828678747" to="372467078#1" departLane="best" type="motorcycle_motorcycle" departSpeed="max"/>
    <trip id="motorcycle134" depart="1036.85" from="695040105#1" to="-295386152#0" departLane="best" type="motorcycle_motorcycle"/>
    <trip id="motorcycle135" depart="1044.59" from="-828678742" to="693885803#9" departLane="best" type="motorcycle_motorcycle" departSpeed="max"/>
    <trip id="motorcycle136" depart="1052.33" from="302739240#1" to="118573606#6" departLane="best" type="motorcycle_motorcycle"/>
    <trip id="motorcycle137" depart="1060.07" from="689583179#1" to="-118575972#0" departLane="best" type="motorcycle_motorcycle"/>
    <trip id="motorcycle138" depart="1067.80" from="-295386152#8" to="302739240#1" departLane="best" type="motorcycle_motorcycle" departSpeed="max"/>
    <trip id="motorcycle139" depart="1075.54" from="-828678741#1" to="828678749#0" departLane="best" type="motorcycle_motorcycle" departSpeed="max"/>
    <trip id="motorcycle140" depart="1083.28" from="302751284" to="-118575975#5" departLane="best" type="motorcycle_motorcycle" departSpeed="max"/>
    <trip id="motorcycle141" depart="1091.02" from="-828678748" to="779462187#1.9" departLane="best" type="motorcycle_motorcycle" departSpeed="max"/>
    <trip id="motorcycle142" depart="1098.75" from="295386152#1" to="695511482#4" departLane="best" type="motorcycle_motorcycle"/>
    <trip id="motorcycle143" depart="1106.49" from="698936203#0" to="693416739#1" departLane="best" type="motorcycle_motorcycle" departSpeed="max"/>
    <trip id="motorcycle144" depart="1114.23" from="695040102#0" to="408161670#4" departLane="best" type="motorcycle_motorcycle"/>
    <trip id="motorcycle145" depart="1121.97" from="295386152#4" to="118573606#9" departLane="best" type="motorcycle_motorcycle"/>
    <trip id="motorcycle146" depart="1129.71" from="-828678748" to="693885802#2" departLane="best" type="motorcycle_motorcycle" departSpeed="max"/>
    <trip id="motorcycle147" depart="1137.44" from="641397122" to="118575975#0" departLane="best" type="motorcycle_motorcycle" departSpeed="max"/>
    <trip id="motorcycle148" depart="1145.18" from="-295386152#3" to="118575975#2" departLane="best" type="motorcycle_motorcycle"/>
    <trip id="motorcycle149" depart="1152.92" from="-828678746" to="693885803#9" departLane="best" type="motorcycle_motorcycle" departSpeed="max"/>
    <trip id="motorcycle150" depart="1160.66" from="693885802#2" to="-1255581684" departLane="best" type="motorcycle_motorcycle"/>
    <trip id="motorcycle151" depart="1168.39" from="695040105#2" to="695040102#0" departLane="best" type="motorcycle_motorcycle"/>
    <trip id="motorcycle152" depart="1176.13" from="118575975#4" to="-118575972#0" departLane="best" type="motorcycle_motorcycle"/>
    <trip id="motorcycle153" depart="1183.87" from="118575972#1" to="695027208" departLane="best" type="motorcycle_motorcycle"/>
    <trip id="motorcycle154" depart="1191.61" from="695040105#2" to="828678748" departLane="best" type="motorcycle_motorcycle"/>
    <trip id="motorcycle155" depart="1199.34" from="-828678745#1" to="118573606#10" departLane="best" type="motorcycle_motorcycle"/>
    <trip id="motorcycle156" depart="1207.08" from="118575972#0" to="693885803#5" departLane="best" type="motorcycle_motorcycle" departSpeed="max"/>
    <trip id="motorcycle157" depart="1214.82" from="295386152#3" to="-372467078#1" departLane="best" type="motorcycle_motorcycle"/>
    <trip id="motorcycle158" depart="1222.56" from="641397122" to="-118575975#1" departLane="best" type="motorcycle_motorcycle" departSpeed="max"/>
    <trip id="motorcycle159" depart="1230.30" from="118575975#6" to="408161670#8" departLane="best" type="motorcycle_motorcycle"/>
    <trip id="motorcycle160" depart="1238.03" from="-118575975#3" to="693885802#2" departLane="best" type="motorcycle_motorcycle"/>
    <trip id="motorcycle161" depart="1245.77" from="-695027208" to="35950897#3" departLane="best" type="motorcycle_motorcycle" departSpeed="max"/>
    <trip id="motorcycle162" depart="1253.51" from="-1255581684" to="295386152#2" departLane="best" type="motorcycle_motorcycle"/>
    <trip id="motorcycle163" depart="1261.25" from="-828678744" to="295128790#10" departLane="best" type="motorcycle_motorcycle"/>
    <trip id="motorcycle164" depart="1268.98" from="-828678748" to="-295386152#2" departLane="best" type="motorcycle_motorcycle" departSpeed="max"/>
    <trip id="motorcycle165" depart="1276.72" from="-118575975#2" to="408161670#3" departLane="best" type="motorcycle_motorcycle"/>
    <trip id="motorcycle166" depart="1284.46" from="689583179#0" to="695040105#0" departLane="best" type="motorcycle_motorcycle" departSpeed="max"/>
    <trip id="motorcycle167" depart="1292.20" from="689583179#0" to="695027208" departLane="best" type="motorcycle_motorcycle" departSpeed="max"/>
    <trip id="motorcycle168" depart="1299.94" from="828678745#0" to="-828678749#1" departLane="best" type="motorcycle_motorcycle" departSpeed="max"/>
    <trip id="motorcycle169" depart="1307.67" from="-118575975#2" to="-695040102#1" departLane="best" type="motorcycle_motorcycle"/>
    <trip id="motorcycle170" depart="1315.41" from="-404718839" to="693885803#3" departLane="best" type="motorcycle_motorcycle" departSpeed="max"/>
    <trip id="motorcycle171" depart="1323.15" from="693885802#1" to="695040102#0" departLane="best" type="motorcycle_motorcycle"/>
    <trip id="motorcycle172" depart="1330.89" from="-828678741#0" to="693416739#0.11" departLane="best" type="motorcycle_motorcycle"/>
    <trip id="motorcycle173" depart="1338.62" from="695025562#1" to="828678749#1" departLane="best" type="motorcycle_motorcycle"/>
    <trip id="motorcycle174" depart="1346.36" from="-295386152#8" to="-118575975#1" departLane="best" type="motorcycle_motorcycle" departSpeed="max"/>
    <trip id="motorcycle175" depart="1354.10" from="828678749#0" to="295386152#6" departLane="best" type="motorcycle_motorcycle"/>
    <trip id="motorcycle176" depart="1361.84" from="693885802#3" to="-295386152#1" departLane="best" type="motorcycle_motorcycle"/>
    <trip id="motorcycle177" depart="1369.57" from="-295386152#8" to="695040102#1" departLane="best" type="motorcycle_motorcycle" departSpeed="max"/>
    <trip id="motorcycle178" depart="1377.31" from="695040105#1" to="693416739#0" departLane="best" type="motorcycle_motorcycle"/>
    <trip id="motorcycle179" depart="1385.05" from="-404718839" to="E2" departLane="best" type="motorcycle_motorcycle" departSpeed="max"/>
    <trip id="motorcycle180" depart="1392.79" from="694829084#1" to="295128790#6" departLane="best" type="motorcycle_motorcycle"/>
    <trip id="motorcycle181" depart="1400.53" from="302739240#2" to="295128790#5" departLane="best" type="motorcycle_motorcycle"/>
    <trip id="motorcycle182" depart="1408.26" from="-295386152#8" to="828678749#0" departLane="best" type="motorcycle_motorcycle" departSpeed="max"/>
    <trip id="motorcycle183" depart="1416.00" from="641423230" to="698936203#2" departLane="best" type="motorcycle_motorcycle" departSpeed="max"/>
    <trip id="motorcycle184" depart="1423.74" from="693885802#2" to="302739240#2" departLane="best" type="motorcycle_motorcycle"/>
    <trip id="motorcycle185" depart="1431.48" from="-828678749#1" to="696756023" departLane="best" type="motorcycle_motorcycle"/>
    <trip id="motorcycle186" depart="1439.21" from="-828678749#1" to="779462187#1.9" departLane="best" type="motorcycle_motorcycle"/>
    <trip id="motorcycle187" depart="1446.95" from="695040102#0" to="-295386152#2" departLane="best" type="motorcycle_motorcycle"/>
    <trip id="motorcycle188" depart="1454.69" from="295386152#3" to="693416739#0.11" departLane="best" type="motorcycle_motorcycle"/>
    <trip id="motorcycle189" depart="1462.43" from="118575975#4" to="-118575975#1" departLane="best" type="motorcycle_motorcycle"/>
    <trip id="motorcycle190" depart="1470.16" from="695040105#1" to="-828678745#1" departLane="best" type="motorcycle_motorcycle"/>
    <trip id="motorcycle191" depart="1477.90" from="-828678744" to="695040105#3" departLane="best" type="motorcycle_motorcycle"/>
    <trip id="motorcycle192" depart="1485.64" from="118575972#0" to="828678741#1" departLane="best" type="motorcycle_motorcycle" departSpeed="max"/>
    <trip id="motorcycle193" depart="1493.38" from="693885802#1" to="118575975#1" departLane="best" type="motorcycle_motorcycle"/>
    <trip id="motorcycle194" depart="1501.12" from="-118575975#0" to="828678748" departLane="best" type="motorcycle_motorcycle"/>
    <trip id="motorcycle195" depart="1508.85" from="302739240#0" to="695030266" departLane="best" type="motorcycle_motorcycle"/>
    <trip id="motorcycle196" depart="1516.59" from="302739240#0" to="695040105#2" departLane="best" type="motorcycle_motorcycle"/>
    <trip id="motorcycle197" depart="1524.33" from="-295386152#7" to="118573606#10" departLane="best" type="motorcycle_motorcycle"/>
    <trip id="motorcycle198" depart="1532.07" from="693885802#0" to="118575975#5" departLane="best" type="motorcycle_motorcycle"/>
    <trip id="motorcycle199" depart="1539.80" from="408161670#3" to="372467078#1" departLane="best" type="motorcycle_motorcycle"/>
    <trip id="motorcycle200" depart="1547.54" from="693885802#1" to="118575975#0" departLane="best" type="motorcycle_motorcycle"/>
    <trip id="motorcycle201" depart="1555.28" from="-828678748" to="-372467078#0" departLane="best" type="motorcycle_motorcycle" departSpeed="max"/>
    <trip id="motorcycle202" depart="1563.02" from="-828678742" to="-372467078#0" departLane="best" type="motorcycle_motorcycle" departSpeed="max"/>
    <trip id="motorcycle203" depart="1570.75" from="-828678741#1" to="118573606#1" departLane="best" type="motorcycle_motorcycle" departSpeed="max"/>
    <trip id="motorcycle204" depart="1578.49" from="118573606#0" to="-295386152#6" departLane="best" type="motorcycle_motorcycle"/>
    <trip id="motorcycle205" depart="1586.23" from="-828678742" to="118573606#12" departLane="best" type="motorcycle_motorcycle" departSpeed="max"/>
    <trip id="motorcycle206" depart="1593.97" from="-828678741#1" to="-118575972#2" departLane="best" type="motorcycle_motorcycle" departSpeed="max"/>
    <trip id="motorcycle207" depart="1601.71" from="E0" to="408161670#5" departLane="best" type="motorcycle_motorcycle"/>
    <trip id="motorcycle208" depart="1609.44" from="693885802#0" to="-372467078#1" departLane="best" type="motorcycle_motorcycle"/>
    <trip id="motorcycle209" depart="1617.18" from="695510006" to="408161670#9" departLane="best" type="motorcycle_motorcycle" departSpeed="max"/>
    <trip id="motorcycle210" depart="1624.92" from="295386152#4" to="302739240#3" departLane="best" type="motorcycle_motorcycle"/>
    <trip id="motorcycle211" depart="1632.66" from="-828678741#1" to="-118575975#5" departLane="best" type="motorcycle_motorcycle" departSpeed="max"/>