<?xml version="1.0" encoding="UTF-8"?>

<!-- generated on 2025-07-01 14:30:08.349326 by randomTrips.py v1_23_1+0000-676720d13f6
<configuration>
    <net-file value="osm.net.xml.gz"/>
    <output-trip-file value="osm.bicycle.trips.xml"/>
    <route-file value="osm.bicycle.rou.xml"/>
    <prefix value="bike"/>
    <trip-attributes value="departLane=&quot;best&quot;"/>
    <fringe-start-attributes value="departSpeed=&quot;max&quot;"/>
    <vehicle-class value="bicycle"/>
    <fringe-factor value="2"/>
    <edge-permission value="bicycle"/>
    <via-edge-types value="highway.motorway,highway.motorway_link,highway.trunk_link,highway.primary_link,highway.secondary_link,highway.tertiary_link"/>
    <max-distance value="8000.0"/>
    <remove-loops value="True"/>
    <validate value="True"/>
    <insertion-density value="60.0"/>
</configuration>
-->

<routes xmlns:xsi="http://www.w3.org/2001/XMLSchema-instance" xsi:noNamespaceSchemaLocation="http://sumo.dlr.de/xsd/routes_file.xsd">
    <vType id="bike_bicycle" vClass="bicycle"/>
    <trip id="bike0" depart="0.00" from="698936203#0" to="-372467078#0" departLane="best" type="bike_bicycle" departSpeed="max"/>
    <trip id="bike1" depart="3.76" from="118573606#0" to="-118575975#5" departLane="best" type="bike_bicycle"/>
    <trip id="bike2" depart="7.51" from="-695040107#2" to="408161670#1" departLane="best" type="bike_bicycle"/>
    <trip id="bike3" depart="11.27" from="-118575975#6" to="-695673446#0" departLane="best" type="bike_bicycle"/>
    <trip id="bike4" depart="15.02" from="408161670#4" to="408161670#9" departLane="best" type="bike_bicycle"/>
    <trip id="bike5" depart="18.78" from="695030266" to="695027207" departLane="best" type="bike_bicycle"/>
    <trip id="bike6" depart="22.54" from="-828678748" to="-695040102#0" departLane="best" type="bike_bicycle" departSpeed="max"/>
    <trip id="bike7" depart="26.29" from="828678899" to="1192334146#0" departLane="best" type="bike_bicycle"/>
    <trip id="bike8" depart="30.05" from="-372468201#1" to="-372468201#0" departLane="best" type="bike_bicycle"/>
    <trip id="bike9" depart="33.80" from="695040107#2" to="693416739#0.11" departLane="best" type="bike_bicycle"/>
    <trip id="bike10" depart="37.56" from="695030266" to="695040105#1" departLane="best" type="bike_bicycle"/>
    <trip id="bike11" depart="41.32" from="295386152#2" to="931369479#1" departLane="best" type="bike_bicycle"/>
    <trip id="bike12" depart="45.07" from="695510006" to="642035208#1" departLane="best" type="bike_bicycle" departSpeed="max"/>
    <trip id="bike13" depart="48.83" from="689583179#1" to="-1255581684" departLane="best" type="bike_bicycle"/>
    <trip id="bike14" depart="52.58" from="-295386175#1" to="-828678850#1" departLane="best" type="bike_bicycle"/>
    <trip id="bike15" depart="56.34" from="408161670#12" to="295128790#7" departLane="best" type="bike_bicycle"/>
    <trip id="bike16" depart="60.10" from="-695691453" to="828678895" departLane="best" type="bike_bicycle" departSpeed="max"/>
    <trip id="bike17" depart="63.85" from="408161670#3" to="693416739#1" departLane="best" type="bike_bicycle"/>
    <trip id="bike18" depart="67.61" from="695040107#1" to="695691448" departLane="best" type="bike_bicycle"/>
    <trip id="bike19" depart="71.37" from="-828678744" to="1096471623#0" departLane="best" type="bike_bicycle"/>
    <trip id="bike20" depart="75.12" from="-695040103" to="828678896" departLane="best" type="bike_bicycle" departSpeed="max"/>
    <trip id="bike21" depart="78.88" from="695512891" to="118575975#1" departLane="best" type="bike_bicycle" departSpeed="max"/>
    <trip id="bike22" depart="82.63" from="828678741#0" to="372468201#1" departLane="best" type="bike_bicycle"/>
    <trip id="bike23" depart="86.39" from="-695691452" to="-828678900" departLane="best" type="bike_bicycle" departSpeed="max"/>
    <trip id="bike24" depart="90.15" from="694830397" to="302739240#1" departLane="best" type="bike_bicycle"/>
    <trip id="bike25" depart="93.90" from="-295386152#7" to="295386152#3" departLane="best" type="bike_bicycle"/>
    <trip id="bike26" depart="97.66" from="-118575975#2" to="695040103" departLane="best" type="bike_bicycle"/>
    <trip id="bike27" depart="101.41" from="642035207#0" to="408161670#5" departLane="best" type="bike_bicycle"/>
    <trip id="bike28" depart="105.17" from="-695691453" to="693885803#3" departLane="best" type="bike_bicycle" departSpeed="max"/>
    <trip id="bike29" depart="108.93" from="-372469388#1" to="35950897#3" departLane="best" type="bike_bicycle"/>
    <trip id="bike30" depart="112.68" from="118575972#0" to="828678898" departLane="best" type="bike_bicycle" departSpeed="max"/>
    <trip id="bike31" depart="116.44" from="695512891" to="-931369479#3" departLane="best" type="bike_bicycle" departSpeed="max"/>
    <trip id="bike32" depart="120.19" from="295128790#1" to="-695511483" departLane="best" type="bike_bicycle"/>
    <trip id="bike33" depart="123.95" from="828678741#0" to="828678743" departLane="best" type="bike_bicycle"/>
    <trip id="bike34" depart="127.71" from="-828678741#1" to="693885803#2" departLane="best" type="bike_bicycle" departSpeed="max"/>
    <trip id="bike35" depart="131.46" from="694829084#1" to="408161670#4" departLane="best" type="bike_bicycle"/>
    <trip id="bike36" depart="135.22" from="-118575972#2" to="118575975#4" departLane="best" type="bike_bicycle"/>
    <trip id="bike37" depart="138.97" from="-118575975#4" to="828678850#1" departLane="best" type="bike_bicycle"/>
    <trip id="bike38" depart="142.73" from="-828678743" to="-295386152#2" departLane="best" type="bike_bicycle" departSpeed="max"/>
    <trip id="bike39" depart="146.49" from="-295386152#8" to="695511482#4" departLane="best" type="bike_bicycle" departSpeed="max"/>
    <trip id="bike40" depart="150.24" from="118575975#3" to="641423229" departLane="best" type="bike_bicycle"/>
    <trip id="bike41" depart="154.00" from="295386152#3" to="695040105#1" departLane="best" type="bike_bicycle"/>
    <trip id="bike42" depart="157.75" from="-695040102#1" to="118575975#1" departLane="best" type="bike_bicycle"/>
    <trip id="bike43" depart="161.51" from="118573606#4" to="408161670#12" departLane="best" type="bike_bicycle"/>
    <trip id="bike44" depart="165.27" from="-828678748" to="689583179#1" departLane="best" type="bike_bicycle" departSpeed="max"/>
    <trip id="bike45" depart="169.02" from="-295386152#8" to="693885803#0" departLane="best" type="bike_bicycle" departSpeed="max"/>
    <trip id="bike46" depart="172.78" from="-695040107#0" to="-642035207#0" departLane="best" type="bike_bicycle"/>
    <trip id="bike47" depart="176.54" from="828678749#1" to="642035208#0" departLane="best" type="bike_bicycle"/>
    <trip id="bike48" depart="180.29" from="118575975#2" to="695691449" departLane="best" type="bike_bicycle"/>
    <trip id="bike49" depart="184.05" from="695033472#2" to="-695668721#0" departLane="best" type="bike_bicycle" departSpeed="max"/>
    <trip id="bike50" depart="187.80" from="-372468201#2" to="35950897#2" departLane="best" type="bike_bicycle"/>
    <trip id="bike51" depart="191.56" from="118573606#1" to="372469387#1" departLane="best" type="bike_bicycle"/>
    <trip id="bike52" depart="195.32" from="E0" to="-372468201#0" departLane="best" type="bike_bicycle"/>
    <trip id="bike53" depart="199.07" from="-931369479#0" to="1192334146#0" departLane="best" type="bike_bicycle"/>
    <trip id="bike54" depart="202.83" from="695510006" to="-931369478" departLane="best" type="bike_bicycle" departSpeed="max"/>
    <trip id="bike55" depart="206.58" from="-695027208" to="372467078#1" departLane="best" type="bike_bicycle" departSpeed="max"/>
    <trip id="bike56" depart="210.34" from="118573606#0" to="118573606#10" departLane="best" type="bike_bicycle"/>
    <trip id="bike57" depart="214.10" from="-695691449" to="828678849" departLane="best" type="bike_bicycle" departSpeed="max"/>
    <trip id="bike58" depart="217.85" from="295386152#7" to="-295386152#0" departLane="best" type="bike_bicycle"/>
    <trip id="bike59" depart="221.61" from="931369479#0" to="828678850#1" departLane="best" type="bike_bicycle"/>
    <trip id="bike60" depart="225.36" from="695040107#3" to="-695040107#1" departLane="best" type="bike_bicycle"/>
    <trip id="bike61" depart="229.12" from="118575975#6" to="-828678745#0" departLane="best" type="bike_bicycle"/>
    <trip id="bike62" depart="232.88" from="-695691452" to="695691449" departLane="best" type="bike_bicycle" departSpeed="max"/>
    <trip id="bike63" depart="236.63" from="118575972#0" to="302739240#2" departLane="best" type="bike_bicycle" departSpeed="max"/>
    <trip id="bike64" depart="240.39" from="-642035207#0" to="118573606#8" departLane="best" type="bike_bicycle"/>
    <trip id="bike65" depart="244.14" from="931369479#0" to="642067357#0" departLane="best" type="bike_bicycle"/>
    <trip id="bike66" depart="247.90" from="295386152#4" to="695040107#1" departLane="best" type="bike_bicycle"/>
    <trip id="bike67" depart="251.66" from="-295386152#4" to="642067357#0" departLane="best" type="bike_bicycle"/>
    <trip id="bike68" depart="255.41" from="-642035207#1" to="828678900" departLane="best" type="bike_bicycle"/>
    <trip id="bike69" depart="259.17" from="698936203#0" to="-828678900" departLane="best" type="bike_bicycle" departSpeed="max"/>
    <trip id="bike70" depart="262.92" from="118573606#0" to="642067357#0" departLane="best" type="bike_bicycle"/>
    <trip id="bike71" depart="266.68" from="-695040103" to="695040102#1" departLane="best" type="bike_bicycle" departSpeed="max"/>
    <trip id="bike72" depart="270.44" from="641397122" to="118573606#8" departLane="best" type="bike_bicycle" departSpeed="max"/>
    <trip id="bike73" depart="274.19" from="-828678744" to="695040107#3" departLane="best" type="bike_bicycle"/>
    <trip id="bike74" depart="277.95" from="-295386152#8" to="372468201#1" departLane="best" type="bike_bicycle" departSpeed="max"/>
    <trip id="bike75" depart="281.71" from="-295386152#8" to="-828678745#0" departLane="best" type="bike_bicycle" departSpeed="max"/>
    <trip id="bike76" depart="285.46" from="-695691452" to="828678854#2" departLane="best" type="bike_bicycle" departSpeed="max"/>
    <trip id="bike77" depart="289.22" from="695040102#0" to="118573606#8" departLane="best" type="bike_bicycle"/>
    <trip id="bike78" depart="292.97" from="408161670#9" to="828678895" departLane="best" type="bike_bicycle"/>
    <trip id="bike79" depart="296.73" from="-404718839" to="-372469388#0" departLane="best" type="bike_bicycle" departSpeed="max"/>
    <trip id="bike80" depart="300.49" from="-695691453" to="693416739#0.11" departLane="best" type="bike_bicycle" departSpeed="max"/>
    <trip id="bike81" depart="304.24" from="408161670#12" to="-931369479#3" departLane="best" type="bike_bicycle"/>
    <trip id="bike82" depart="308.00" from="118575975#6" to="828678748" departLane="best" type="bike_bicycle"/>
    <trip id="bike83" depart="311.75" from="695040107#2" to="-372467078#0" departLane="best" type="bike_bicycle"/>
    <trip id="bike84" depart="315.51" from="118573606#1" to="118573606#1" departLane="best" type="bike_bicycle"/>
    <trip id="bike85" depart="319.27" from="-118575972#2" to="695691448" departLane="best" type="bike_bicycle"/>
    <trip id="bike86" depart="323.02" from="408161670#13" to="-931369479#2" departLane="best" type="bike_bicycle"/>
    <trip id="bike87" depart="326.78" from="695040105#3" to="642067357#0" departLane="best" type="bike_bicycle"/>
    <trip id="bike88" depart="330.53" from="694830397.22" to="828678741#1" departLane="best" type="bike_bicycle"/>
    <trip id="bike89" depart="334.29" from="698936203#2" to="-828678745#0" departLane="best" type="bike_bicycle"/>
    <trip id="bike90" depart="338.05" from="-695691449" to="-372468201#1" departLane="best" type="bike_bicycle" departSpeed="max"/>
    <trip id="bike91" depart="341.80" from="694829084#1" to="828678745#1" departLane="best" type="bike_bicycle"/>
    <trip id="bike92" depart="345.56" from="-642035207#0" to="828678854#2" departLane="best" type="bike_bicycle"/>
    <trip id="bike93" depart="349.31" from="-118575975#5" to="695040105#2" departLane="best" type="bike_bicycle"/>
    <trip id="bike94" depart="353.07" from="-828678747" to="828678854#2" departLane="best" type="bike_bicycle" departSpeed="max"/>
    <trip id="bike95" depart="356.83" from="695025562#1" to="828678742" departLane="best" type="bike_bicycle"/>
    <trip id="bike96" depart="360.58" from="695033472#2" to="1096471623#0" departLane="best" type="bike_bicycle" departSpeed="max"/>
    <trip id="bike97" depart="364.34" from="694830396" to="-372469387#0" departLane="best" type="bike_bicycle" departSpeed="max"/>
    <trip id="bike98" depart="368.09" from="695512891" to="828678741#1" departLane="best" type="bike_bicycle" departSpeed="max"/>
    <trip id="bike99" depart="371.85" from="-695040107#3" to="695691454#0" departLane="best" type="bike_bicycle"/>
    <trip id="bike100" depart="375.61" from="118575972#1" to="118575972#1" departLane="best" type="bike_bicycle"/>
    <trip id="bike101" depart="379.36" from="694830397.22" to="-828678845" departLane="best" type="bike_bicycle"/>
    <trip id="bike102" depart="383.12" from="-118575975#5" to="-695668721#0" departLane="best" type="bike_bicycle"/>
    <trip id="bike103" depart="386.88" from="-828678746" to="828678742" departLane="best" type="bike_bicycle" departSpeed="max"/>
    <trip id="bike104" depart="390.63" from="931369479#0" to="118573606#10" departLane="best" type="bike_bicycle"/>
    <trip id="bike105" depart="394.39" from="931369479#3" to="408161670#5" departLane="best" type="bike_bicycle"/>
    <trip id="bike106" depart="398.14" from="828678845" to="-372469388#0" departLane="best" type="bike_bicycle"/>
    <trip id="bike107" depart="401.90" from="931369479#1" to="-695511483" departLane="best" type="bike_bicycle"/>
    <trip id="bike108" depart="405.66" from="828678900" to="-931369479#3" departLane="best" type="bike_bicycle"/>
    <trip id="bike109" depart="409.41" from="-372469388#0" to="35950897#3" departLane="best" type="bike_bicycle"/>
    <trip id="bike110" depart="413.17" from="693885802#0" to="118575975#1" departLane="best" type="bike_bicycle"/>
    <trip id="bike111" depart="416.92" from="-828678897" to="642035208#1" departLane="best" type="bike_bicycle"/>
    <trip id="bike112" depart="420.68" from="-118575972#2" to="828678849" departLane="best" type="bike_bicycle"/>
    <trip id="bike113" depart="424.44" from="295386152#3" to="695040103" departLane="best" type="bike_bicycle"/>
    <trip id="bike114" depart="428.19" from="-828678743" to="779462187#1.9" departLane="best" type="bike_bicycle" departSpeed="max"/>
    <trip id="bike115" depart="431.95" from="-828678743" to="295386175#1" departLane="best" type="bike_bicycle" departSpeed="max"/>
    <trip id="bike116" depart="435.70" from="-931369479#0" to="118573606#6" departLane="best" type="bike_bicycle"/>
    <trip id="bike117" depart="439.46" from="-372469394" to="302739240#1" departLane="best" type="bike_bicycle" departSpeed="max"/>
    <trip id="bike118" depart="443.22" from="-828678742" to="408161670#9" departLane="best" type="bike_bicycle" departSpeed="max"/>
    <trip id="bike119" depart="446.97" from="-118575972#2" to="118573606#3" departLane="best" type="bike_bicycle"/>
    <trip id="bike120" depart="450.73" from="118573606#12" to="642067357#0" departLane="best" type="bike_bicycle"/>
    <trip id="bike121" depart="454.48" from="408161670#5" to="372469387#0" departLane="best" type="bike_bicycle"/>
    <trip id="bike122" depart="458.24" from="118575975#2" to="828678748" departLane="best" type="bike_bicycle"/>
    <trip id="bike123" depart="462.00" from="694830397.22" to="-695040107#2" departLane="best" type="bike_bicycle"/>
    <trip id="bike124" depart="465.75" from="408161670#11" to="1192334146#0" departLane="best" type="bike_bicycle"/>
    <trip id="bike125" depart="469.51" from="695040102#0" to="695040107#2" departLane="best" type="bike_bicycle"/>
    <trip id="bike126" depart="473.26" from="641397122" to="-828678749#1" departLane="best" type="bike_bicycle" departSpeed="max"/>
    <trip id="bike127" depart="477.02" from="-695040102#0" to="-118575975#3" departLane="best" type="bike_bicycle"/>
    <trip id="bike128" depart="480.78" from="-695691449" to="372469388#1" departLane="best" type="bike_bicycle" departSpeed="max"/>
    <trip id="bike129" depart="484.53" from="-931369479#3" to="693885803#0" departLane="best" type="bike_bicycle"/>
    <trip id="bike130" depart="488.29" from="-695027208" to="695027207" departLane="best" type="bike_bicycle" departSpeed="max"/>
    <trip id="bike131" depart="492.04" from="1199455963" to="-828678898" departLane="best" type="bike_bicycle" departSpeed="max"/>
    <trip id="bike132" depart="495.80" from="693885803#2" to="695673446#0" departLane="best" type="bike_bicycle"/>
    <trip id="bike133" depart="499.56" from="-695027206" to="828678899" departLane="best" type="bike_bicycle" departSpeed="max"/>
    <trip id="bike134" depart="503.31" from="118575972#0" to="695691452" departLane="best" type="bike_bicycle" departSpeed="max"/>
    <trip id="bike135" depart="507.07" from="641397122" to="E1" departLane="best" type="bike_bicycle" departSpeed="max"/>
    <trip id="bike136" depart="510.83" from="698936203#0" to="693416739#1" departLane="best" type="bike_bicycle" departSpeed="max"/>
    <trip id="bike137" depart="514.58" from="695040105#2" to="408161670#9" departLane="best" type="bike_bicycle"/>
    <trip id="bike138" depart="518.34" from="698936203#2" to="695040107#0" departLane="best" type="bike_bicycle"/>
    <trip id="bike139" depart="522.09" from="118575975#3" to="-931369479#1" departLane="best" type="bike_bicycle"/>
    <trip id="bike140" depart="525.85" from="-695691449" to="693885803#2" departLane="best" type="bike_bicycle" departSpeed="max"/>
    <trip id="bike141" depart="529.61" from="295386152#3" to="-642035208#0" departLane="best" type="bike_bicycle"/>
    <trip id="bike142" depart="533.36" from="689583179#1" to="-295386152#4" departLane="best" type="bike_bicycle"/>
    <trip id="bike143" depart="537.12" from="-931369479#2" to="408161670#8" departLane="best" type="bike_bicycle"/>
    <trip id="bike144" depart="540.87" from="118573606#0" to="828678748" departLane="best" type="bike_bicycle"/>
    <trip id="bike145" depart="544.63" from="302751284" to="695027207" departLane="best" type="bike_bicycle" departSpeed="max"/>
    <trip id="bike146" depart="548.39" from="695510006" to="695511483" departLane="best" type="bike_bicycle" departSpeed="max"/>
    <trip id="bike147" depart="552.14" from="-828678749#1" to="695040107#3" departLane="best" type="bike_bicycle"/>
    <trip id="bike148" depart="555.90" from="118573606#0" to="695040107#1" departLane="best" type="bike_bicycle"/>
    <trip id="bike149" depart="559.65" from="295386152#6" to="693416739#0" departLane="best" type="bike_bicycle"/>
    <trip id="bike150" depart="563.41" from="-931369479#1" to="-695040107#1" departLane="best" type="bike_bicycle"/>
    <trip id="bike151" depart="567.17" from="118575975#1" to="-641423230" departLane="best" type="bike_bicycle"/>
    <trip id="bike152" depart="570.92" from="-828678900" to="642035207#0" departLane="best" type="bike_bicycle"/>
    <trip id="bike153" depart="574.68" from="-118575975#6" to="693885803#3" departLane="best" type="bike_bicycle"/>
    <trip id="bike154" depart="578.43" from="-404718839" to="372468201#2" departLane="best" type="bike_bicycle" departSpeed="max"/>
    <trip id="bike155" depart="582.19" from="-295386152#2" to="295386152#2" departLane="best" type="bike_bicycle"/>
    <trip id="bike156" depart="585.95" from="-695691451" to="-295386175#2" departLane="best" type="bike_bicycle" departSpeed="max"/>
    <trip id="bike157" depart="589.70" from="-118575975#4" to="408161670#6" departLane="best" type="bike_bicycle"/>
    <trip id="bike158" depart="593.46" from="E4" to="295128790#10" departLane="best" type="bike_bicycle"/>
    <trip id="bike159" depart="597.21" from="408161670#4" to="695691449" departLane="best" type="bike_bicycle"/>
    <trip id="bike160" depart="600.97" from="408161670#4" to="695040107#3" departLane="best" type="bike_bicycle"/>
    <trip id="bike161" depart="604.73" from="828678897" to="-695673446#0" departLane="best" type="bike_bicycle"/>
    <trip id="bike162" depart="608.48" from="-118575975#4" to="-695040102#0" departLane="best" type="bike_bicycle"/>
    <trip id="bike163" depart="612.24" from="302739240#0" to="-828678745#1" departLane="best" type="bike_bicycle"/>
    <trip id="bike164" depart="616.00" from="689583179#0" to="695673446#0" departLane="best" type="bike_bicycle" departSpeed="max"/>
    <trip id="bike165" depart="619.75" from="-642067357#0" to="693416739#0.11" departLane="best" type="bike_bicycle" departSpeed="max"/>
    <trip id="bike166" depart="623.51" from="695040102#1" to="931369478" departLane="best" type="bike_bicycle"/>
    <trip id="bike167" depart="627.26" from="689583179#5" to="-295386175#0" departLane="best" type="bike_bicycle"/>
    <trip id="bike168" depart="631.02" from="695040107#3" to="693416739#0" departLane="best" type="bike_bicycle"/>
    <trip id="bike169" depart="634.78" from="694830396" to="295128790#1" departLane="best" type="bike_bicycle" departSpeed="max"/>
    <trip id="bike170" depart="638.53" from="118573606#10" to="295128790#9" departLane="best" type="bike_bicycle"/>
    <trip id="bike171" depart="642.29" from="689583179#1" to="35950897#3" departLane="best" type="bike_bicycle"/>
    <trip id="bike172" depart="646.04" from="693885802#2" to="931369478" departLane="best" type="bike_bicycle"/>
    <trip id="bike173" depart="649.80" from="-695691453" to="695691453" departLane="best" type="bike_bicycle" departSpeed="max"/>
    <trip id="bike174" depart="653.56" from="295386152#3" to="372469389#0" departLane="best" type="bike_bicycle"/>
    <trip id="bike175" depart="657.31" from="695040105#2" to="-372467078#0" departLane="best" type="bike_bicycle"/>
    <trip id="bike176" depart="661.07" from="695691450" to="-828678898" departLane="best" type="bike_bicycle"/>
    <trip id="bike177" depart="664.82" from="118575975#0" to="693416739#1" departLane="best" type="bike_bicycle"/>
    <trip id="bike178" depart="668.58" from="-695040107#0" to="695691452" departLane="best" type="bike_bicycle"/>
    <trip id="bike179" depart="672.34" from="-828678748" to="828678744" departLane="best" type="bike_bicycle" departSpeed="max"/>
    <trip id="bike180" depart="676.09" from="689583179#0" to="118573606#1" departLane="best" type="bike_bicycle" departSpeed="max"/>
    <trip id="bike181" depart="679.85" from="-118575975#1" to="828678896" departLane="best" type="bike_bicycle"/>
    <trip id="bike182" depart="683.60" from="118575975#6" to="695510004" departLane="best" type="bike_bicycle"/>
    <trip id="bike183" depart="687.36" from="642035208#0" to="693885803#5" departLane="best" type="bike_bicycle"/>
    <trip id="bike184" depart="691.12" from="1199455963" to="695691451" departLane="best" type="bike_bicycle" departSpeed="max"/>
    <trip id="bike185" depart="694.87" from="302751284" to="372469388#0" departLane="best" type="bike_bicycle" departSpeed="max"/>
    <trip id="bike186" depart="698.63" from="295386152#1" to="302739240#2" departLane="best" type="bike_bicycle"/>
    <trip id="bike187" depart="702.38" from="689583179#0" to="118573606#0" departLane="best" type="bike_bicycle" departSpeed="max"/>
    <trip id="bike188" depart="706.14" from="-695691449" to="-372469388#1" departLane="best" type="bike_bicycle" departSpeed="max"/>
    <trip id="bike189" depart="709.90" from="-695027208" to="-372469388#1" departLane="best" type="bike_bicycle" departSpeed="max"/>
    <trip id="bike190" depart="713.65" from="295386152#2" to="695511482#4" departLane="best" type="bike_bicycle"/>
    <trip id="bike191" depart="717.41" from="-695027207" to="-828678745#1" departLane="best" type="bike_bicycle" departSpeed="max"/>
    <trip id="bike192" depart="721.17" from="118575975#5" to="695040103" departLane="best" type="bike_bicycle"/>
    <trip id="bike193" depart="724.92" from="931369479#2" to="408161670#2" departLane="best" type="bike_bicycle"/>
    <trip id="bike194" depart="728.68" from="-696756023" to="-372468201#1" departLane="best" type="bike_bicycle" departSpeed="max"/>
    <trip id="bike195" depart="732.43" from="-695027208" to="-828678845" departLane="best" type="bike_bicycle" departSpeed="max"/>
    <trip id="bike196" depart="736.19" from="-695027206" to="-118575975#0" departLane="best" type="bike_bicycle" departSpeed="max"/>
    <trip id="bike197" depart="739.95" from="295386152#2" to="118573606#1" departLane="best" type="bike_bicycle"/>
    <trip id="bike198" depart="743.70" from="689583179#0" to="-641423230" departLane="best" type="bike_bicycle" departSpeed="max"/>
    <trip id="bike199" depart="747.46" from="695512891" to="642035208#0" departLane="best" type="bike_bicycle" departSpeed="max"/>
    <trip id="bike200" depart="751.21" from="118575975#1" to="35950897#3" departLane="best" type="bike_bicycle"/>
    <trip id="bike201" depart="754.97" from="-695027207" to="-295386152#0" departLane="best" type="bike_bicycle" departSpeed="max"/>
    <trip id="bike202" depart="758.73" from="695040102#1" to="295386152#8" departLane="best" type="bike_bicycle"/>
    <trip id="bike203" depart="762.48" from="-295386152#3" to="-695033472#2" departLane="best" type="bike_bicycle"/>
    <trip id="bike204" depart="766.24" from="694830397" to="-828678749#1" departLane="best" type="bike_bicycle"/>
    <trip id="bike205" depart="769.99" from="408161670#0" to="693416739#1" departLane="best" type="bike_bicycle"/>
    <trip id="bike206" depart="773.75" from="693885802#3" to="828678896" departLane="best" type="bike_bicycle"/>
    <trip id="bike207" depart="777.51" from="-695040103" to="-828678745#0" departLane="best" type="bike_bicycle" departSpeed="max"/>
    <trip id="bike208" depart="781.26" from="-642067357#0" to="-295386175#0" departLane="best" type="bike_bicycle" departSpeed="max"/>
    <trip id="bike209" depart="785.02" from="-118575972#2" to="372467078#1" departLane="best" type="bike_bicycle"/>
    <trip id="bike210" depart="788.77" from="689583179#0" to="372468201#0" departLane="best" type="bike_bicycle" departSpeed="max"/>
    <trip id="bike211" depart="792.53" from="642035207#1" to="828678849" departLane="best" type="bike_bicycle"/>
    <trip id="bike212" depart="796.29" from="694830396" to="693885802#2" departLane="best" type="bike_bicycle" departSpeed="max"/>
    <trip id="bike213" depart="800.04" from="408161670#8" to="828678895" departLane="best" type="bike_bicycle"/>
    <trip id="bike214" depart="803.80" from="118573606#1" to="408161670#9" departLane="best" type="bike_bicycle"/>
    <trip id="bike215" depart="807.55" from="695040105#1" to="-295386152#7" departLane="best" type="bike_bicycle"/>
    <trip id="bike216" depart="811.31" from="-696756023" to="-641423230" departLane="best" type="bike_bicycle" departSpeed="max"/>
    <trip id="bike217" depart="815.07" from="1199455963" to="-295386175#1" departLane="best" type="bike_bicycle" departSpeed="max"/>
    <trip id="bike218" depart="818.82" from="-1255581684" to="35950897#2" departLane="best" type="bike_bicycle"/>
    <trip id="bike219" depart="822.58" from="-828678746" to="-931369478" departLane="best" type="bike_bicycle" departSpeed="max"/>
    <trip id="bike220" depart="826.34" from="695040105#3" to="642035208#1" departLane="best" type="bike_bicycle"/>
    <trip id="bike221" depart="830.09" from="828678897" to="E4" departLane="best" type="bike_bicycle"/>
    <trip id="bike222" depart="833.85" from="641397122" to="1096471623#0" departLane="best" type="bike_bicycle" departSpeed="max"/>
    <trip id="bike223" depart="837.60" from="-1255581684" to="695510004" departLane="best" type="bike_bicycle"/>
    <trip id="bike224" depart="841.36" from="118575975#2" to="693885803#6" departLane="best" type="bike_bicycle"/>
    <trip id="bike225" depart="845.12" from="828678744" to="-695512891" departLane="best" type="bike_bicycle"/>
    <trip id="bike226" depart="848.87" from="35950897#2" to="693885803#11" departLane="best" type="bike_bicycle"/>
    <trip id="bike227" depart="852.63" from="1199455963" to="-372467078#0" departLane="best" type="bike_bicycle" departSpeed="max"/>
    <trip id="bike228" depart="856.38" from="-828678749#0" to="118575975#6" departLane="best" type="bike_bicycle"/>
    <trip id="bike229" depart="860.14" from="641397122" to="828678741#1" departLane="best" type="bike_bicycle" departSpeed="max"/>
    <trip id="bike230" depart="863.90" from="-828678747" to="695027207" departLane="best" type="bike_bicycle" departSpeed="max"/>
    <trip id="bike231" depart="867.65" from="-696756023" to="828678896" departLane="best" type="bike_bicycle" departSpeed="max"/>
    <trip id="bike232" depart="871.41" from="118575972#0" to="118575975#1" departLane="best" type="bike_bicycle" departSpeed="max"/>
    <trip id="bike233" depart="875.16" from="-828678746" to="931369479#0" departLane="best" type="bike_bicycle" departSpeed="max"/>
    <trip id="bike234" depart="878.92" from="-931369479#1" to="408161670#11" departLane="best" type="bike_bicycle"/>
    <trip id="bike235" depart="882.68" from="295386152#4" to="295386175#2" departLane="best" type="bike_bicycle"/>
    <trip id="bike236" depart="886.43" from="-695027207" to="295128790#6" departLane="best" type="bike_bicycle" departSpeed="max"/>
    <trip id="bike237" depart="890.19" from="295386152#7" to="828678850#1" departLane="best" type="bike_bicycle"/>
    <trip id="bike238" depart="893.94" from="118575972#1" to="-372469388#0" departLane="best" type="bike_bicycle"/>
    <trip id="bike239" depart="897.70" from="695040105#2" to="404718839" departLane="best" type="bike_bicycle"/>