<?xml version="1.0" encoding="UTF-8"?>

<!-- generated on 2025-06-17 12:55:18.598730 by randomTrips.py v1_22_0+0002-63e50f52594
<configuration>
    <net-file value="osm.net.xml.gz"/>
    <output-trip-file value="osm.res_veh.trips.xml"/>
    <route-file value="osm.res_veh.rou.xml"/>
    <prefix value="res_veh"/>
    <trip-attributes value="departLane=&quot;best&quot;"/>
    <fringe-start-attributes value="departSpeed=&quot;max&quot;"/>
    <vehicle-class value="passenger"/>
    <fringe-factor value="2"/>
    <via-edge-types value="highway.residential"/>
    <min-distance value="150.0"/>
    <remove-loops value="True"/>
    <validate value="True"/>
    <insertion-rate value="0.00417"/>
</configuration>
-->

<!-- generated on 2025-06-17 12:55:18 by Eclipse SUMO duarouter Version 1.22.0
<duarouterConfiguration xmlns:xsi="http://www.w3.org/2001/XMLSchema-instance" xsi:noNamespaceSchemaLocation="http://sumo.dlr.de/xsd/duarouterConfiguration.xsd">

    <input>
        <net-file value="osm.net.xml.gz"/>
        <route-files value="osm.res_veh.trips.xml"/>
    </input>

    <output>
        <output-file value="osm.res_veh.trips.xml.tmp"/>
        <alternatives-output value="NUL"/>
        <write-trips value="true"/>
    </output>

    <processing>
        <remove-loops value="true"/>
    </processing>

    <time>
        <begin value="0.0"/>
        <end value="3600.0"/>
    </time>

    <report>
        <no-warnings value="true"/>
        <ignore-errors value="true"/>
        <no-step-log value="true"/>
    </report>

</duarouterConfiguration>
-->

<routes xmlns:xsi="http://www.w3.org/2001/XMLSchema-instance" xsi:noNamespaceSchemaLocation="http://sumo.dlr.de/xsd/routes_file.xsd"/>
