<?xml version="1.0" encoding="UTF-8"?>

<!-- generated on 2025-06-17 12:55:21.608374 by randomTrips.py v1_22_0+0002-63e50f52594
<configuration>
    <net-file value="osm.net.xml.gz"/>
    <output-trip-file value="osm.passenger.trips.xml"/>
    <route-file value="osm.passenger.rou.xml"/>
    <prefix value="veh"/>
    <trip-attributes value="departLane=&quot;best&quot;"/>
    <fringe-start-attributes value="departSpeed=&quot;max&quot;"/>
    <vehicle-class value="passenger"/>
    <lanes value="True"/>
    <fringe-factor value="5"/>
    <allow-fringe.min-length value="10000.0"/>
    <via-edge-types value="highway.motorway,highway.motorway_link,highway.trunk_link,highway.primary_link,highway.secondary_link,highway.tertiary_link"/>
    <min-distance value="300.0"/>
    <min-distance.fringe value="100.0"/>
    <remove-loops value="True"/>
    <validate value="True"/>
    <insertion-density value="120.0"/>
</configuration>
-->

<!-- generated on 2025-06-17 12:55:21 by Eclipse SUMO duarouter Version 1.22.0
<duarouterConfiguration xmlns:xsi="http://www.w3.org/2001/XMLSchema-instance" xsi:noNamespaceSchemaLocation="http://sumo.dlr.de/xsd/duarouterConfiguration.xsd">

    <input>
        <net-file value="osm.net.xml.gz"/>
        <route-files value="osm.passenger.trips.xml"/>
    </input>

    <output>
        <output-file value="osm.passenger.trips.xml.tmp"/>
        <alternatives-output value="NUL"/>
        <write-trips value="true"/>
    </output>

    <processing>
        <remove-loops value="true"/>
    </processing>

    <time>
        <begin value="0.0"/>
        <end value="3600.0"/>
    </time>

    <report>
        <no-warnings value="true"/>
        <ignore-errors value="true"/>
        <no-step-log value="true"/>
    </report>

</duarouterConfiguration>
-->

<routes xmlns:xsi="http://www.w3.org/2001/XMLSchema-instance" xsi:noNamespaceSchemaLocation="http://sumo.dlr.de/xsd/routes_file.xsd">
    <vType id="veh_passenger" vClass="passenger"/>
    <trip id="veh0" type="veh_passenger" depart="0.00" departLane="best" from="295128790#2" to="295128790#8"/>
    <trip id="veh2" type="veh_passenger" depart="5.16" departLane="best" departSpeed="max" from="118575972#0" to="693416739#0"/>
    <trip id="veh3" type="veh_passenger" depart="7.74" departLane="best" departSpeed="max" from="118575972#0" to="693885803#0"/>
    <trip id="veh4" type="veh_passenger" depart="10.32" departLane="best" from="695040102#1" to="-118575972#0"/>
    <trip id="veh5" type="veh_passenger" depart="12.90" departLane="best" from="828678749#0" to="372467078#1"/>
    <trip id="veh6" type="veh_passenger" depart="15.48" departLane="best" departSpeed="max" from="-696756023" to="-828678745#0"/>
    <trip id="veh7" type="veh_passenger" depart="18.05" departLane="best" departSpeed="max" from="695510006" to="693885803#2"/>
    <trip id="veh8" type="veh_passenger" depart="20.63" departLane="best" departSpeed="max" from="302751284" to="693416739#1"/>
    <trip id="veh9" type="veh_passenger" depart="23.21" departLane="best" from="695040105#2" to="693885803#6"/>
    <trip id="veh12" type="veh_passenger" depart="30.95" departLane="best" from="-118575975#0" to="35950897#2"/>
    <trip id="veh13" type="veh_passenger" depart="33.53" departLane="best" from="695040102#0" to="295128790#9"/>
    <trip id="veh14" type="veh_passenger" depart="36.11" departLane="best" from="693885802#2" to="408161670#0"/>
    <trip id="veh15" type="veh_passenger" depart="38.69" departLane="best" departSpeed="max" from="302751284" to="295128790#6"/>
    <trip id="veh17" type="veh_passenger" depart="43.85" departLane="best" departSpeed="max" from="-828678747" to="408161670#10"/>
    <trip id="veh19" type="veh_passenger" depart="49.01" departLane="best" departSpeed="max" from="695510006" to="35950897#3"/>
    <trip id="veh22" type="veh_passenger" depart="56.74" departLane="best" departSpeed="max" from="689583179#0" to="295386152#8"/>
    <trip id="veh23" type="veh_passenger" depart="59.32" departLane="best" from="695025562#1" to="408161670#3"/>
    <trip id="veh24" type="veh_passenger" depart="61.90" departLane="best" departSpeed="max" from="-404718839" to="408161670#10"/>
    <trip id="veh26" type="veh_passenger" depart="67.06" departLane="best" departSpeed="max" from="-828678742" to="408161670#5"/>
    <trip id="veh27" type="veh_passenger" depart="69.64" departLane="best" departSpeed="max" from="641397122" to="295128790#1"/>
    <trip id="veh28" type="veh_passenger" depart="72.22" departLane="best" from="118575972#1" to="35950897#3"/>
    <trip id="veh31" type="veh_passenger" depart="79.96" departLane="best" departSpeed="max" from="-696756023" to="689583179#5"/>
    <trip id="veh32" type="veh_passenger" depart="82.54" departLane="best" departSpeed="max" from="-695027208" to="695040105#3"/>
    <trip id="veh33" type="veh_passenger" depart="85.11" departLane="best" from="694830397" to="118573606#10"/>
    <trip id="veh36" type="veh_passenger" depart="92.85" departLane="best" departSpeed="max" from="689583179#0" to="695030266"/>
    <trip id="veh40" type="veh_passenger" depart="103.17" departLane="best" departSpeed="max" from="118575972#0" to="118573606#3"/>
    <trip id="veh41" type="veh_passenger" depart="105.75" departLane="best" from="695040102#0" to="295128790#10"/>
    <trip id="veh42" type="veh_passenger" depart="108.33" departLane="best" from="-828678741#0" to="408161670#4"/>
    <trip id="veh44" type="veh_passenger" depart="113.49" departLane="best" from="118573606#0" to="408161670#8"/>
    <trip id="veh47" type="veh_passenger" depart="121.22" departLane="best" departSpeed="max" from="689583179#0" to="295386152#6"/>
    <trip id="veh48" type="veh_passenger" depart="123.80" departLane="best" from="E0" to="828678746"/>
    <trip id="veh49" type="veh_passenger" depart="126.38" departLane="best" departSpeed="max" from="302751284" to="E2"/>
    <trip id="veh51" type="veh_passenger" depart="131.54" departLane="best" from="828678749#0" to="E4"/>
    <trip id="veh52" type="veh_passenger" depart="134.12" departLane="best" departSpeed="max" from="-828678747" to="35950897#3"/>
    <trip id="veh53" type="veh_passenger" depart="136.70" departLane="best" departSpeed="max" from="689583179#0" to="695040105#1"/>
    <trip id="veh55" type="veh_passenger" depart="141.86" departLane="best" from="695040102#0" to="295128790#10"/>
    <trip id="veh58" type="veh_passenger" depart="149.60" departLane="best" from="118575975#5" to="408161670#12"/>
    <trip id="veh59" type="veh_passenger" depart="152.17" departLane="best" departSpeed="max" from="-695027208" to="408161670#9"/>
    <trip id="veh61" type="veh_passenger" depart="157.33" departLane="best" departSpeed="max" from="302751284" to="-118575975#4"/>
    <trip id="veh64" type="veh_passenger" depart="165.07" departLane="best" from="698936203#3" to="35950897#3"/>
    <trip id="veh66" type="veh_passenger" depart="170.23" departLane="best" departSpeed="max" from="-828678743" to="1096471623#0"/>
    <trip id="veh67" type="veh_passenger" depart="172.81" departLane="best" from="295128790#2" to="693885803#3"/>
    <trip id="veh68" type="veh_passenger" depart="175.39" departLane="best" from="694829084#1" to="295128790#5"/>
    <trip id="veh69" type="veh_passenger" depart="177.97" departLane="best" from="693885802#2" to="295386152#8"/>
    <trip id="veh73" type="veh_passenger" depart="188.28" departLane="best" from="-118575975#0" to="695511482#4"/>
    <trip id="veh74" type="veh_passenger" depart="190.86" departLane="best" from="693885802#2" to="295386152#8"/>
    <trip id="veh76" type="veh_passenger" depart="196.02" departLane="best" departSpeed="max" from="698936203#0" to="693416739#1"/>
    <trip id="veh78" type="veh_passenger" depart="201.18" departLane="best" departSpeed="max" from="-828678746" to="118573606#10"/>
    <trip id="veh80" type="veh_passenger" depart="206.34" departLane="best" from="695040102#1" to="828678741#1"/>
    <trip id="veh81" type="veh_passenger" depart="208.92" departLane="best" from="695040102#1" to="302739240#0"/>
    <trip id="veh82" type="veh_passenger" depart="211.50" departLane="best" from="695025562#1" to="-828678745#1"/>
    <trip id="veh83" type="veh_passenger" depart="214.08" departLane="best" departSpeed="max" from="695510006" to="779462187#1.9"/>
    <trip id="veh84" type="veh_passenger" depart="216.66" departLane="best" departSpeed="max" from="118575972#0" to="779462187#1.9"/>
    <trip id="veh86" type="veh_passenger" depart="221.81" departLane="best" from="693885802#3" to="408161670#12"/>
    <trip id="veh87" type="veh_passenger" depart="224.39" departLane="best" from="828678744" to="1096471623#0"/>
    <trip id="veh88" type="veh_passenger" depart="226.97" departLane="best" from="E0" to="295128790#1"/>
    <trip id="veh89" type="veh_passenger" depart="229.55" departLane="best" from="E0" to="295386152#8"/>
    <trip id="veh90" type="veh_passenger" depart="232.13" departLane="best" departSpeed="max" from="-828678741#1" to="408161670#5"/>
    <trip id="veh91" type="veh_passenger" depart="234.71" departLane="best" departSpeed="max" from="694830396" to="35950897#3"/>
    <trip id="veh93" type="veh_passenger" depart="239.87" departLane="best" from="-118575972#2" to="828678746"/>
    <trip id="veh94" type="veh_passenger" depart="242.45" departLane="best" departSpeed="max" from="302751284" to="-641423230"/>
    <trip id="veh95" type="veh_passenger" depart="245.03" departLane="best" from="295386152#1" to="779462187#1.9"/>
    <trip id="veh98" type="veh_passenger" depart="252.77" departLane="best" departSpeed="max" from="-828678743" to="408161670#3"/>
    <trip id="veh100" type="veh_passenger" depart="257.92" departLane="best" departSpeed="max" from="698936203#0" to="693885803#6"/>
    <trip id="veh101" type="veh_passenger" depart="260.50" departLane="best" from="295128790#8" to="693416739#1"/>
    <trip id="veh102" type="veh_passenger" depart="263.08" departLane="best" from="118575972#1" to="35950897#2"/>
    <trip id="veh106" type="veh_passenger" depart="273.40" departLane="best" from="695025562#1" to="1279915895#1"/>
    <trip id="veh107" type="veh_passenger" depart="275.98" departLane="best" departSpeed="max" from="-696756023" to="693416739#0.11"/>
    <trip id="veh108" type="veh_passenger" depart="278.56" departLane="best" from="693885802#2" to="372467078#0"/>
    <trip id="veh113" type="veh_passenger" depart="291.45" departLane="best" departSpeed="max" from="641397122" to="295386152#3"/>
    <trip id="veh115" type="veh_passenger" depart="296.61" departLane="best" departSpeed="max" from="-828678741#1" to="408161670#4"/>
    <trip id="veh117" type="veh_passenger" depart="301.77" departLane="best" from="689583179#5" to="828678748"/>
    <trip id="veh118" type="veh_passenger" depart="304.35" departLane="best" departSpeed="max" from="698936203#0" to="693885803#5"/>
    <trip id="veh119" type="veh_passenger" depart="306.93" departLane="best" from="695040105#2" to="693416739#1"/>
    <trip id="veh122" type="veh_passenger" depart="314.67" departLane="best" from="295128790#2" to="35950897#3"/>
    <trip id="veh123" type="veh_passenger" depart="317.25" departLane="best" departSpeed="max" from="689583179#0" to="118573606#6"/>
    <trip id="veh128" type="veh_passenger" depart="330.14" departLane="best" departSpeed="max" from="302751284" to="-118575972#0"/>
    <trip id="veh129" type="veh_passenger" depart="332.72" departLane="best" departSpeed="max" from="302751284" to="695040105#2"/>
    <trip id="veh131" type="veh_passenger" depart="337.88" departLane="best" departSpeed="max" from="689583179#0" to="693885803#2"/>
    <trip id="veh134" type="veh_passenger" depart="345.62" departLane="best" from="295386152#2" to="693885804#1"/>
    <trip id="veh135" type="veh_passenger" depart="348.20" departLane="best" from="-828678744" to="408161670#9"/>
    <trip id="veh136" type="veh_passenger" depart="350.78" departLane="best" departSpeed="max" from="-295386152#8" to="408161670#10"/>
    <trip id="veh137" type="veh_passenger" depart="353.36" departLane="best" departSpeed="max" from="118575972#0" to="35950897#3"/>
    <trip id="veh138" type="veh_passenger" depart="355.93" departLane="best" from="694830397" to="408161670#10"/>
    <trip id="veh140" type="veh_passenger" depart="361.09" departLane="best" from="-118575975#6" to="693416739#1"/>
    <trip id="veh145" type="veh_passenger" depart="373.99" departLane="best" departSpeed="max" from="-828678748" to="693885803#3"/>
    <trip id="veh147" type="veh_passenger" depart="379.15" departLane="best" from="828678749#0" to="408161670#12"/>
    <trip id="veh148" type="veh_passenger" depart="381.73" departLane="best" from="694829084#1" to="-641423230"/>
    <trip id="veh149" type="veh_passenger" depart="384.31" departLane="best" departSpeed="max" from="-828678741#1" to="695511482#4"/>
    <trip id="veh150" type="veh_passenger" depart="386.89" departLane="best" departSpeed="max" from="695510006" to="693885803#2"/>
    <trip id="veh151" type="veh_passenger" depart="389.46" departLane="best" from="695025559" to="372467078#1"/>
    <trip id="veh152" type="veh_passenger" depart="392.04" departLane="best" departSpeed="max" from="641397122" to="372467078#1"/>
    <trip id="veh153" type="veh_passenger" depart="394.62" departLane="best" departSpeed="max" from="695510006" to="779462187#1.9"/>
    <trip id="veh155" type="veh_passenger" depart="399.78" departLane="best" from="295128790#2" to="779462187#1.4"/>
    <trip id="veh156" type="veh_passenger" depart="402.36" departLane="best" from="295128790#2" to="779462187#1.9"/>
    <trip id="veh159" type="veh_passenger" depart="410.10" departLane="best" departSpeed="max" from="302751284" to="-118575975#5"/>
    <trip id="veh160" type="veh_passenger" depart="412.68" departLane="best" departSpeed="max" from="695510006" to="295128790#10"/>
    <trip id="veh161" type="veh_passenger" depart="415.26" departLane="best" departSpeed="max" from="-696756023" to="695027208"/>
    <trip id="veh163" type="veh_passenger" depart="420.42" departLane="best" departSpeed="max" from="-696756023" to="295128790#7"/>
    <trip id="veh164" type="veh_passenger" depart="422.99" departLane="best" from="693885804#1" to="35950897#3"/>
    <trip id="veh165" type="veh_passenger" depart="425.57" departLane="best" departSpeed="max" from="689583179#0" to="408161670#4"/>
    <trip id="veh166" type="veh_passenger" depart="428.15" departLane="best" departSpeed="max" from="694830396" to="35950897#3"/>
    <trip id="veh167" type="veh_passenger" depart="430.73" departLane="best" from="295128790#1" to="1096471623#0"/>
    <trip id="veh168" type="veh_passenger" depart="433.31" departLane="best" from="118573606#1" to="1096471623#0"/>
    <trip id="veh169" type="veh_passenger" depart="435.89" departLane="best" departSpeed="max" from="689583179#0" to="695040105#3"/>
    <trip id="veh171" type="veh_passenger" depart="441.05" departLane="best" from="-828678749#1" to="118575972#1"/>
    <trip id="veh176" type="veh_passenger" depart="453.95" departLane="best" from="695040105#1" to="408161670#13"/>
    <trip id="veh178" type="veh_passenger" depart="459.10" departLane="best" from="689583179#1" to="35950897#3"/>
    <trip id="veh179" type="veh_passenger" depart="461.68" departLane="best" departSpeed="max" from="641423230" to="408161670#8"/>
    <trip id="veh182" type="veh_passenger" depart="469.42" departLane="best" departSpeed="max" from="694830396" to="828678748"/>
    <trip id="veh184" type="veh_passenger" depart="474.58" departLane="best" from="118575975#0" to="408161670#8"/>
    <trip id="veh185" type="veh_passenger" depart="477.16" departLane="best" from="689583179#5" to="35950897#2"/>
    <trip id="veh190" type="veh_passenger" depart="490.05" departLane="best" departSpeed="max" from="-828678748" to="35950897#3"/>
    <trip id="veh191" type="veh_passenger" depart="492.63" departLane="best" departSpeed="max" from="641397122" to="-641423230"/>
    <trip id="veh192" type="veh_passenger" depart="495.21" departLane="best" departSpeed="max" from="-295386152#8" to="408161670#5"/>
    <trip id="veh195" type="veh_passenger" depart="502.95" departLane="best" departSpeed="max" from="828678745#0" to="E4"/>
    <trip id="veh197" type="veh_passenger" depart="508.11" departLane="best" from="698936203#2" to="295128790#10"/>
    <trip id="veh198" type="veh_passenger" depart="510.69" departLane="best" departSpeed="max" from="641397122" to="-828678744"/>
    <trip id="veh199" type="veh_passenger" depart="513.27" departLane="best" from="698936203#3" to="693416739#1"/>
    <trip id="veh203" type="veh_passenger" depart="523.58" departLane="best" departSpeed="max" from="689583179#0" to="408161670#2"/>
    <trip id="veh205" type="veh_passenger" depart="528.74" departLane="best" departSpeed="max" from="694830396" to="693885803#9"/>
    <trip id="veh206" type="veh_passenger" depart="531.32" departLane="best" from="694830397" to="295128790#5"/>
    <trip id="veh210" type="veh_passenger" depart="541.64" departLane="best" departSpeed="max" from="-828678747" to="693416739#1"/>
    <trip id="veh212" type="veh_passenger" depart="546.80" departLane="best" from="695040105#2" to="689583179#5"/>
    <trip id="veh213" type="veh_passenger" depart="549.38" departLane="best" from="295128790#2" to="779462187#1.9"/>
    <trip id="veh215" type="veh_passenger" depart="554.54" departLane="best" departSpeed="max" from="689583179#0" to="408161670#10"/>
    <trip id="veh216" type="veh_passenger" depart="557.12" departLane="best" from="698936203#3" to="693416739#0"/>
    <trip id="veh218" type="veh_passenger" depart="562.27" departLane="best" from="295128790#6" to="35950897#3"/>
    <trip id="veh219" type="veh_passenger" depart="564.85" departLane="best" departSpeed="max" from="641397122" to="-118575975#0"/>
    <trip id="veh220" type="veh_passenger" depart="567.43" departLane="best" departSpeed="max" from="689583179#0" to="372467078#1"/>
    <trip id="veh222" type="veh_passenger" depart="572.59" departLane="best" from="694830397.22" to="295386152#2"/>
    <trip id="veh223" type="veh_passenger" depart="575.17" departLane="best" from="-295386152#7" to="693416739#0"/>
    <trip id="veh224" type="veh_passenger" depart="577.75" departLane="best" departSpeed="max" from="689583179#0" to="408161670#9"/>
    <trip id="veh225" type="veh_passenger" depart="580.33" departLane="best" departSpeed="max" from="694830396" to="408161670#2"/>
    <trip id="veh228" type="veh_passenger" depart="588.07" departLane="best" departSpeed="max" from="695510006" to="779462187#1.9"/>
    <trip id="veh229" type="veh_passenger" depart="590.65" departLane="best" from="694829084#1" to="695040105#2"/>
    <trip id="veh231" type="veh_passenger" depart="595.80" departLane="best" from="698936203#3" to="E4"/>
    <trip id="veh232" type="veh_passenger" depart="598.38" departLane="best" departSpeed="max" from="694830396" to="408161670#5"/>
    <trip id="veh233" type="veh_passenger" depart="600.96" departLane="best" departSpeed="max" from="-828678746" to="693416739#1"/>
    <trip id="veh235" type="veh_passenger" depart="606.12" departLane="best" departSpeed="max" from="695510006" to="693885803#6"/>
    <trip id="veh236" type="veh_passenger" depart="608.70" departLane="best" departSpeed="max" from="-828678746" to="408161670#9"/>
    <trip id="veh238" type="veh_passenger" depart="613.86" departLane="best" departSpeed="max" from="-828678747" to="408161670#6"/>
    <trip id="veh239" type="veh_passenger" depart="616.44" departLane="best" from="693885802#3" to="408161670#4"/>
    <trip id="veh245" type="veh_passenger" depart="631.91" departLane="best" departSpeed="max" from="-295386152#8" to="693885803#3"/>
    <trip id="veh246" type="veh_passenger" depart="634.49" departLane="best" departSpeed="max" from="641397122" to="828678743"/>
    <trip id="veh248" type="veh_passenger" depart="639.65" departLane="best" departSpeed="max" from="694830396" to="828678741#0"/>
    <trip id="veh249" type="veh_passenger" depart="642.23" departLane="best" departSpeed="max" from="-828678748" to="118573606#3"/>
    <trip id="veh250" type="veh_passenger" depart="644.81" departLane="best" from="695040105#1" to="689583179#4"/>
    <trip id="veh251" type="veh_passenger" depart="647.39" departLane="best" from="E0" to="118573606#8"/>
    <trip id="veh254" type="veh_passenger" depart="655.13" departLane="best" departSpeed="max" from="689583179#0" to="828678746"/>
    <trip id="veh255" type="veh_passenger" depart="657.71" departLane="best" departSpeed="max" from="118575972#0" to="-372467078#0"/>
    <trip id="veh256" type="veh_passenger" depart="660.28" departLane="best" from="-828678744" to="408161670#8"/>
    <trip id="veh258" type="veh_passenger" depart="665.44" departLane="best" departSpeed="max" from="694830396" to="-118575975#2"/>
    <trip id="veh260" type="veh_passenger" depart="670.60" departLane="best" departSpeed="max" from="641397122" to="408161670#13"/>
    <trip id="veh261" type="veh_passenger" depart="673.18" departLane="best" departSpeed="max" from="302751284" to="408161670#6"/>
    <trip id="veh262" type="veh_passenger" depart="675.76" departLane="best" departSpeed="max" from="828678745#0" to="779462187#1.9"/>
    <trip id="veh263" type="veh_passenger" depart="678.34" departLane="best" departSpeed="max" from="302751284" to="408161670#12"/>
    <trip id="veh264" type="veh_passenger" depart="680.92" departLane="best" from="695025562#1" to="295386152#3"/>
    <trip id="veh265" type="veh_passenger" depart="683.50" departLane="best" departSpeed="max" from="-695027208" to="695040105#3"/>
    <trip id="veh267" type="veh_passenger" depart="688.66" departLane="best" departSpeed="max" from="695510006" to="35950897#3"/>
    <trip id="veh268" type="veh_passenger" depart="691.24" departLane="best" from="-118575975#0" to="779462187#1.9"/>
    <trip id="veh269" type="veh_passenger" depart="693.81" departLane="best" departSpeed="max" from="-828678746" to="118573606#12"/>
    <trip id="veh270" type="veh_passenger" depart="696.39" departLane="best" from="-118575975#4" to="35950897#3"/>
    <trip id="veh271" type="veh_passenger" depart="698.97" departLane="best" departSpeed="max" from="641423230" to="408161670#9"/>
    <trip id="veh272" type="veh_passenger" depart="701.55" departLane="best" from="E0" to="-372467078#0"/>
    <trip id="veh273" type="veh_passenger" depart="704.13" departLane="best" from="695040102#0" to="693885803#3"/>
    <trip id="veh275" type="veh_passenger" depart="709.29" departLane="best" departSpeed="max" from="689583179#0" to="408161670#8"/>
    <trip id="veh278" type="veh_passenger" depart="717.03" departLane="best" from="302739240#2" to="408161670#8"/>
    <trip id="veh281" type="veh_passenger" depart="724.77" departLane="best" departSpeed="max" from="302751284" to="-118575975#2"/>
    <trip id="veh282" type="veh_passenger" depart="727.34" departLane="best" from="698936203#3" to="-372467078#0"/>
    <trip id="veh283" type="veh_passenger" depart="729.92" departLane="best" from="-828678741#0" to="695040105#0"/>
    <trip id="veh284" type="veh_passenger" depart="732.50" departLane="best" from="698936203#3" to="693416739#1"/>
    <trip id="veh285" type="veh_passenger" depart="735.08" departLane="best" from="302739240#0" to="118573606#0"/>
    <trip id="veh286" type="veh_passenger" depart="737.66" departLane="best" departSpeed="max" from="302751284" to="695040105#3"/>
    <trip id="veh288" type="veh_passenger" depart="742.82" departLane="best" from="695040105#1" to="693885803#5"/>
    <trip id="veh292" type="veh_passenger" depart="753.14" departLane="best" departSpeed="max" from="302751284" to="695027208"/>
    <trip id="veh293" type="veh_passenger" depart="755.72" departLane="best" departSpeed="max" from="-828678747" to="693885803#6"/>
    <trip id="veh297" type="veh_passenger" depart="766.03" departLane="best" from="-118575975#2" to="35950897#3"/>
    <trip id="veh298" type="veh_passenger" depart="768.61" departLane="best" from="295128790#1" to="35950897#3"/>
    <trip id="veh299" type="veh_passenger" depart="771.19" departLane="best" from="118575975#2" to="695040105#1"/>
    <trip id="veh300" type="veh_passenger" depart="773.77" departLane="best" departSpeed="max" from="-828678748" to="408161670#10"/>
    <trip id="veh301" type="veh_passenger" depart="776.35" departLane="best" from="695040105#3" to="779462187#1.4"/>
    <trip id="veh302" type="veh_passenger" depart="778.93" departLane="best" departSpeed="max" from="-295386152#8" to="-118575975#1"/>
    <trip id="veh303" type="veh_passenger" depart="781.51" departLane="best" from="698936203#3" to="779462187#1.9"/>
    <trip id="veh306" type="veh_passenger" depart="789.25" departLane="best" from="302739240#2" to="35950897#3"/>
    <trip id="veh307" type="veh_passenger" depart="791.83" departLane="best" departSpeed="max" from="-828678748" to="693416739#0.11"/>
    <trip id="veh308" type="veh_passenger" depart="794.40" departLane="best" departSpeed="max" from="698936203#0" to="404718839"/>
    <trip id="veh309" type="veh_passenger" depart="796.98" departLane="best" from="698936203#3" to="295128790#9"/>
    <trip id="veh312" type="veh_passenger" depart="804.72" departLane="best" departSpeed="max" from="694830396" to="695040105#3"/>
    <trip id="veh313" type="veh_passenger" depart="807.30" departLane="best" departSpeed="max" from="-695027208" to="408161670#6"/>
    <trip id="veh315" type="veh_passenger" depart="812.46" departLane="best" departSpeed="max" from="695510006" to="693885803#6"/>
    <trip id="veh316" type="veh_passenger" depart="815.04" departLane="best" departSpeed="max" from="641397122" to="689583179#1"/>
    <trip id="veh318" type="veh_passenger" depart="820.20" departLane="best" departSpeed="max" from="698936203#0" to="408161670#8"/>
    <trip id="veh319" type="veh_passenger" depart="822.78" departLane="best" from="695040102#1" to="693885804#1.60"/>
    <trip id="veh320" type="veh_passenger" depart="825.36" departLane="best" from="-295386152#4" to="689583179#2"/>
    <trip id="veh321" type="veh_passenger" depart="827.93" departLane="best" departSpeed="max" from="-828678746" to="-372467078#0"/>
    <trip id="veh322" type="veh_passenger" depart="830.51" departLane="best" departSpeed="max" from="641397122" to="1279915895#1"/>
    <trip id="veh324" type="veh_passenger" depart="835.67" departLane="best" departSpeed="max" from="698936203#0" to="828678741#1"/>
    <trip id="veh326" type="veh_passenger" depart="840.83" departLane="best" from="-828678741#0" to="35950897#3"/>
    <trip id="veh330" type="veh_passenger" depart="851.15" departLane="best" from="693885802#3" to="408161670#3"/>
    <trip id="veh331" type="veh_passenger" depart="853.73" departLane="best" departSpeed="max" from="302751284" to="408161670#0"/>
    <trip id="veh332" type="veh_passenger" depart="856.31" departLane="best" from="118575975#0" to="118573606#6"/>
    <trip id="veh333" type="veh_passenger" depart="858.89" departLane="best" departSpeed="max" from="-828678741#1" to="695511482#4"/>
    <trip id="veh335" type="veh_passenger" depart="864.04" departLane="best" from="-295386152#7" to="372467078#1"/>
    <trip id="veh336" type="veh_passenger" depart="866.62" departLane="best" from="694830397" to="118573606#12"/>
    <trip id="veh337" type="veh_passenger" depart="869.20" departLane="best" departSpeed="max" from="302751284" to="-118575975#5"/>
    <trip id="veh338" type="veh_passenger" depart="871.78" departLane="best" from="695040105#2" to="695511482#4"/>
    <trip id="veh340" type="veh_passenger" depart="876.94" departLane="best" departSpeed="max" from="694830396" to="408161670#8"/>
    <trip id="veh341" type="veh_passenger" depart="879.52" departLane="best" departSpeed="max" from="689583179#0" to="35950897#3"/>
    <trip id="veh342" type="veh_passenger" depart="882.10" departLane="best" from="695040102#1" to="689583179#1"/>
    <trip id="veh343" type="veh_passenger" depart="884.68" departLane="best" departSpeed="max" from="828678745#0" to="E2"/>
    <trip id="veh345" type="veh_passenger" depart="889.84" departLane="best" departSpeed="max" from="302751284" to="693416739#1"/>
    <trip id="veh346" type="veh_passenger" depart="892.42" departLane="best" from="695030266" to="118573606#6"/>
    <trip id="veh348" type="veh_passenger" depart="897.57" departLane="best" departSpeed="max" from="695510006" to="693416739#1"/>
    <trip id="veh350" type="veh_passenger" depart="902.73" departLane="best" departSpeed="max" from="118575972#0" to="408161670#8"/>
    <trip id="veh351" type="veh_passenger" depart="905.31" departLane="best" departSpeed="max" from="302751284" to="-118575975#4"/>
    <trip id="veh353" type="veh_passenger" depart="910.47" departLane="best" departSpeed="max" from="302751284" to="-118575975#4"/>
    <trip id="veh355" type="veh_passenger" depart="915.63" departLane="best" from="-828678745#1" to="35950897#2"/>
    <trip id="veh356" type="veh_passenger" depart="918.21" departLane="best" from="695040105#2" to="695025559"/>
    <trip id="veh358" type="veh_passenger" depart="923.37" departLane="best" from="695040105#3" to="693416739#1"/>
    <trip id="veh359" type="veh_passenger" depart="925.95" departLane="best" departSpeed="max" from="-828678742" to="35950897#2"/>
    <trip id="veh360" type="veh_passenger" depart="928.53" departLane="best" departSpeed="max" from="698936203#0" to="693885803#11"/>
    <trip id="veh361" type="veh_passenger" depart="931.10" departLane="best" from="118575975#6" to="118573606#9"/>
    <trip id="veh363" type="veh_passenger" depart="936.26" departLane="best" from="118575975#5" to="408161670#3"/>
    <trip id="veh368" type="veh_passenger" depart="949.16" departLane="best" from="695025562#1" to="372467078#1"/>
    <trip id="veh369" type="veh_passenger" depart="951.74" departLane="best" departSpeed="max" from="694830396" to="693885803#9"/>
    <trip id="veh370" type="veh_passenger" depart="954.32" departLane="best" from="694830397.22" to="695040102#1"/>