<?xml version="1.0" encoding="UTF-8"?>

<!-- generated on 2025-07-01 14:30:08.531468 by randomTrips.py v1_23_1+0000-676720d13f6
<configuration>
    <net-file value="osm.net.xml.gz"/>
    <output-trip-file value="osm.bicycle.trips.xml"/>
    <route-file value="osm.bicycle.rou.xml"/>
    <prefix value="bike"/>
    <trip-attributes value="departLane=&quot;best&quot;"/>
    <fringe-start-attributes value="departSpeed=&quot;max&quot;"/>
    <vehicle-class value="bicycle"/>
    <fringe-factor value="2"/>
    <edge-permission value="bicycle"/>
    <via-edge-types value="highway.motorway,highway.motorway_link,highway.trunk_link,highway.primary_link,highway.secondary_link,highway.tertiary_link"/>
    <max-distance value="8000.0"/>
    <remove-loops value="True"/>
    <validate value="True"/>
    <insertion-density value="60.0"/>
</configuration>
-->

<!-- generated on 2025-07-01 14:30:08 by Eclipse SUMO duarouter Version 1.23.1
<duarouterConfiguration xmlns:xsi="http://www.w3.org/2001/XMLSchema-instance" xsi:noNamespaceSchemaLocation="http://sumo.dlr.de/xsd/duarouterConfiguration.xsd">

    <input>
        <net-file value="osm.net.xml.gz"/>
        <route-files value="osm.bicycle.trips.xml"/>
    </input>

    <output>
        <output-file value="osm.bicycle.rou.xml"/>
        <alternatives-output value="NUL"/>
    </output>

    <processing>
        <remove-loops value="true"/>
    </processing>

    <time>
        <begin value="0.0"/>
        <end value="3600.0"/>
    </time>

    <report>
        <no-warnings value="true"/>
        <ignore-errors value="true"/>
        <no-step-log value="true"/>
    </report>

</duarouterConfiguration>
-->

<routes xmlns:xsi="http://www.w3.org/2001/XMLSchema-instance" xsi:noNamespaceSchemaLocation="http://sumo.dlr.de/xsd/routes_file.xsd">
    <vType id="bike_bicycle" vClass="bicycle"/>
    <vehicle id="bike0" type="bike_bicycle" depart="0.00" departLane="best" departSpeed="max">
        <route edges="698936203#0 698936203#1 698936203#2 698936203#3 1279915895#1 408161670#0 408161670#1 408161670#2 408161670#3 408161670#4 408161670#5 408161670#6 408161670#8 408161670#9 408161670#10 408161670#11 408161670#12 408161670#13 -372467078#1 -372467078#0"/>
    </vehicle>
    <vehicle id="bike1" type="bike_bicycle" depart="3.76" departLane="best">
        <route edges="118573606#0 828678749#0 695040102#1 -295386152#4 -295386152#3 -295386152#2 -295386152#1 -118575975#6 -118575975#5"/>
    </vehicle>
    <vehicle id="bike2" type="bike_bicycle" depart="7.51" departLane="best">
        <route edges="695040107#2 695040107#3 295128790#2 1279915895#1 408161670#0 408161670#1"/>
    </vehicle>
    <vehicle id="bike3" type="bike_bicycle" depart="11.27" departLane="best">
        <route edges="-118575975#6 -118575975#5 -118575975#4 -118575975#3 -118575975#2 -118575975#1 -118575975#0 118575972#1 689583179#1 689583179#2 689583179#4 689583179#5 693885803#0 693885803#2 693885803#3 693885803#5 693885803#6 695673446#0"/>
    </vehicle>
    <vehicle id="bike4" type="bike_bicycle" depart="15.02" departLane="best">
        <route edges="408161670#4 408161670#5 408161670#6 408161670#8 408161670#9"/>
    </vehicle>
    <vehicle id="bike5" type="bike_bicycle" depart="18.78" departLane="best">
        <route edges="695030266 695040105#0 695040105#1 695040105#2 695040102#0 695040102#1 -295386152#4 -295386152#3 -295386152#2 -295386152#1 -118575975#6 -118575975#5 -118575975#4 -118575975#3 828678741#0 828678740 302739240#2 302739240#3 693885802#2 695027207"/>
    </vehicle>
    <vehicle id="bike6" type="bike_bicycle" depart="22.54" departLane="best" departSpeed="max">
        <route edges="-828678748 295386152#2 295386152#3 698936203#2 -828678749#1 -695040102#0"/>
    </vehicle>
    <vehicle id="bike7" type="bike_bicycle" depart="26.29" departLane="best">
        <route edges="828678899 408161670#3 408161670#4 408161670#5 408161670#6 408161670#8 408161670#9 408161670#10 408161670#11 408161670#12 1192334146#0"/>
    </vehicle>
    <vehicle id="bike8" type="bike_bicycle" depart="30.05" departLane="best">
        <route edges="-372468201#1 -372468201#0"/>
    </vehicle>
    <vehicle id="bike9" type="bike_bicycle" depart="33.80" departLane="best">
        <route edges="695040107#2 695040107#3 295128790#2 295128790#5 295128790#6 295128790#7 295128790#8 295128790#9 295128790#10 693885804#1 693885804#1.60 693416739#0 693416739#0.11"/>
    </vehicle>
    <vehicle id="bike10" type="bike_bicycle" depart="37.56" departLane="best">
        <route edges="695030266 695040105#0 695040105#1"/>
    </vehicle>
    <vehicle id="bike11" type="bike_bicycle" depart="41.32" departLane="best">
        <route edges="295386152#2 295386152#3 698936203#2 698936203#3 1279915895#1 408161670#0 408161670#1 408161670#2 408161670#3 408161670#4 408161670#5 408161670#6 408161670#8 408161670#9 408161670#10 408161670#11 -828678898 931369479#1"/>
    </vehicle>
    <vehicle id="bike12" type="bike_bicycle" depart="45.07" departLane="best" departSpeed="max">
        <route edges="695510006 118573606#3 118573606#4 118573606#6 642035208#0 642035208#1"/>
    </vehicle>
    <vehicle id="bike13" type="bike_bicycle" depart="48.83" departLane="best">
        <route edges="689583179#1 689583179#2 689583179#4 302739240#0 302739240#1 -1255581684"/>
    </vehicle>
    <vehicle id="bike14" type="bike_bicycle" depart="52.58" departLane="best">
        <route edges="-295386175#1 -295386175#0 693885803#5 693885803#6 693885803#8 -828678850#1"/>
    </vehicle>
    <vehicle id="bike15" type="bike_bicycle" depart="56.34" departLane="best">
        <route edges="408161670#12 408161670#13 -372467078#1 931369479#0 931369479#1 931369479#2 931369479#3 695040107#0 695040107#1 695040107#2 695040107#3 295128790#2 295128790#5 295128790#6 295128790#7"/>
    </vehicle>
    <vehicle id="bike16" type="bike_bicycle" depart="60.10" departLane="best" departSpeed="max">
        <route edges="-695691453 408161670#5 408161670#6 -642035207#1 -642035207#0 -931369478 118573606#6 118573606#8 118573606#9 118573606#10 828678895"/>
    </vehicle>
    <vehicle id="bike17" type="bike_bicycle" depart="63.85" departLane="best">
        <route edges="408161670#3 408161670#4 408161670#5 408161670#6 -642035207#1 -642035207#0 695040107#0 695040107#1 695040107#2 695040107#3 295128790#2 295128790#5 295128790#6 295128790#7 295128790#8 295128790#9 295128790#10 693885804#1 693885804#1.60 693416739#0 693416739#0.11 693416739#1"/>
    </vehicle>
    <vehicle id="bike18" type="bike_bicycle" depart="67.61" departLane="best">
        <route edges="695040107#1 828678899 408161670#3 408161670#4 408161670#5 695691448"/>
    </vehicle>
    <vehicle id="bike19" type="bike_bicycle" depart="71.37" departLane="best">
        <route edges="-118575975#5 -118575975#4 -118575975#3 -118575975#2 -118575975#1 -118575975#0 118575972#1 689583179#1 689583179#2 689583179#4 689583179#5 1096471623#0"/>
    </vehicle>
    <vehicle id="bike20" type="bike_bicycle" depart="75.12" departLane="best" departSpeed="max">
        <route edges="-695040103 695040105#2 695040105#3 118573606#3 118573606#4 118573606#6 118573606#8 828678896"/>
    </vehicle>
    <vehicle id="bike21" type="bike_bicycle" depart="78.88" departLane="best" departSpeed="max">
        <route edges="695512891 689583179#4 302739240#0 302739240#1 -1255581684 -828678741#0 -118575975#2 -118575975#1"/>
    </vehicle>
    <vehicle id="bike22" type="bike_bicycle" depart="82.63" departLane="best">
        <route edges="-828678741#0 -118575975#2 -118575975#1 -118575975#0 118575972#1 689583179#1 689583179#2 689583179#4 689583179#5 693885803#0 693885803#2 693885803#3 295386175#0 295386175#1 -372468201#2 -372468201#1"/>
    </vehicle>
    <vehicle id="bike23" type="bike_bicycle" depart="86.39" departLane="best" departSpeed="max">
        <route edges="-695691452 408161670#9 -642035208#1 931369479#3 695040107#0 695040107#1 695040107#2 -828678900"/>
    </vehicle>
    <vehicle id="bike24" type="bike_bicycle" depart="90.15" departLane="best">
        <route edges="694830397 694830397.22 695025562#1 695025559 693885802#0 693885802#1 693885802#2 693885802#3 -295386152#0 -118575975#6 -118575975#5 -118575975#4 -118575975#3 -118575975#2 -118575975#1 -118575975#0 118575972#1 689583179#1 689583179#2 689583179#4 302739240#0 302739240#1"/>
    </vehicle>
    <vehicle id="bike25" type="bike_bicycle" depart="93.90" departLane="best">
        <route edges="-295386152#7 -295386152#6 -295386152#4 -295386152#3"/>
    </vehicle>
    <vehicle id="bike26" type="bike_bicycle" depart="97.66" departLane="best">
        <route edges="118575975#2 118575975#3 118575975#4 118575975#5 118575975#6 295386152#1 295386152#2 295386152#3 698936203#2 698936203#3 695040105#0 695040105#1 695040103"/>
    </vehicle>
    <vehicle id="bike27" type="bike_bicycle" depart="101.41" departLane="best">
        <route edges="-642035207#0 695040107#0 695040107#1 828678899 408161670#3 408161670#4 408161670#5"/>
    </vehicle>
    <vehicle id="bike28" type="bike_bicycle" depart="105.17" departLane="best" departSpeed="max">
        <route edges="-695691453 408161670#5 408161670#6 -642035207#1 -642035207#0 695040107#0 695040107#1 695040107#2 695040107#3 295128790#2 295128790#5 295128790#6 295128790#7 -372469388#1 -372469388#0 693885803#3"/>
    </vehicle>
    <vehicle id="bike29" type="bike_bicycle" depart="108.93" departLane="best">
        <route edges="-372469388#1 -372469388#0 693885803#3 295386175#0 295386175#1 -372468201#2 -372468201#1 -372468201#0 -695511483 35950897#3"/>
    </vehicle>
    <vehicle id="bike30" type="bike_bicycle" depart="112.68" departLane="best" departSpeed="max">
        <route edges="118575972#0 118575975#0 118575975#1 118575975#2 118575975#3 118575975#4 118575975#5 118575975#6 295386152#1 295386152#2 295386152#3 698936203#2 698936203#3 1279915895#1 408161670#0 408161670#1 408161670#2 408161670#3 408161670#4 408161670#5 408161670#6 408161670#8 408161670#9 408161670#10 408161670#11 -828678898"/>
    </vehicle>
    <vehicle id="bike31" type="bike_bicycle" depart="116.44" departLane="best" departSpeed="max">
        <route edges="695512891 689583179#4 302739240#0 302739240#1 302739240#2 302739240#3 693885802#2 693885802#3 695030266 1279915895#1 408161670#0 408161670#1 408161670#2 695691450 -695040107#1 -695040107#0 -931369479#3"/>
    </vehicle>
    <vehicle id="bike32" type="bike_bicycle" depart="120.19" departLane="best">
        <route edges="295128790#1 295128790#2 295128790#5 295128790#6 295128790#7 -372469388#1 -372469388#0 693885803#3 295386175#0 295386175#1 -372468201#2 -372468201#1 -372468201#0 -695511483"/>
    </vehicle>
    <vehicle id="bike33" type="bike_bicycle" depart="123.95" departLane="best">
        <route edges="-828678741#0 118575975#3 828678743"/>
    </vehicle>
    <vehicle id="bike34" type="bike_bicycle" depart="127.71" departLane="best" departSpeed="max">
        <route edges="-828678741#1 -828678741#0 -118575975#2 -118575975#1 -118575975#0 118575972#1 689583179#1 689583179#2 689583179#4 689583179#5 693885803#0 693885803#2"/>
    </vehicle>
    <vehicle id="bike35" type="bike_bicycle" depart="131.46" departLane="best">
        <route edges="694829084#1 E0 695025562#1 695025559 693885802#0 693885802#1 693885802#2 693885802#3 695030266 1279915895#1 408161670#0 408161670#1 408161670#2 408161670#3 408161670#4"/>
    </vehicle>
    <vehicle id="bike36" type="bike_bicycle" depart="135.22" departLane="best">
        <route edges="-118575972#2 118575975#0 118575975#1 118575975#2 118575975#3 118575975#4"/>
    </vehicle>
    <vehicle id="bike37" type="bike_bicycle" depart="138.97" departLane="best">
        <route edges="-118575975#4 -118575975#3 -118575975#2 -118575975#1 -118575975#0 118575972#1 689583179#1 689583179#2 689583179#4 689583179#5 693885803#0 693885803#2 693885803#3 693885803#5 693885803#6 695673446#0 828678854#2 828678850#1"/>
    </vehicle>
    <vehicle id="bike38" type="bike_bicycle" depart="142.73" departLane="best" departSpeed="max">
        <route edges="-828678743 118575975#4 118575975#5 118575975#6 295386152#1 295386152#2"/>
    </vehicle>
    <vehicle id="bike39" type="bike_bicycle" depart="146.49" departLane="best" departSpeed="max">
        <route edges="-295386152#8 -295386152#7 -295386152#6 -295386152#4 698936203#2 698936203#3 295128790#5 295128790#6 295128790#7 295128790#8 295128790#9 295128790#10 1096471623#0 695511482#4"/>
    </vehicle>
    <vehicle id="bike40" type="bike_bicycle" depart="150.24" departLane="best">
        <route edges="-118575975#3 -118575975#2 -118575975#1 -118575975#0 118575972#1 689583179#1 689583179#2 641423229"/>
    </vehicle>
    <vehicle id="bike41" type="bike_bicycle" depart="154.00" departLane="best">
        <route edges="295386152#3 698936203#2 698936203#3 695040105#0 695040105#1"/>
    </vehicle>
    <vehicle id="bike42" type="bike_bicycle" depart="157.75" departLane="best">
        <route edges="695040102#1 -295386152#4 -295386152#3 -295386152#2 -295386152#1 -118575975#6 -118575975#5 -118575975#4 -118575975#3 -118575975#2 -118575975#1"/>
    </vehicle>
    <vehicle id="bike43" type="bike_bicycle" depart="161.51" departLane="best">
        <route edges="118573606#4 118573606#6 642035208#0 642035208#1 408161670#10 408161670#11 408161670#12"/>
    </vehicle>
    <vehicle id="bike44" type="bike_bicycle" depart="165.27" departLane="best" departSpeed="max">
        <route edges="-828678748 -295386152#1 -118575975#6 -118575975#5 -118575975#4 -118575975#3 -118575975#2 -118575975#1 -118575975#0 118575972#1 689583179#1"/>
    </vehicle>
    <vehicle id="bike45" type="bike_bicycle" depart="169.02" departLane="best" departSpeed="max">
        <route edges="-295386152#8 -295386152#7 -295386152#6 -295386152#4 698936203#2 698936203#3 295128790#5 295128790#6 295128790#7 295128790#8 295128790#9 295128790#10 693885803#0"/>
    </vehicle>
    <vehicle id="bike46" type="bike_bicycle" depart="172.78" departLane="best">
        <route edges="-695040107#0 642035207#0"/>
    </vehicle>
    <vehicle id="bike47" type="bike_bicycle" depart="176.54" departLane="best">
        <route edges="828678749#1 698936203#3 695040105#0 695040105#1 695040105#2 695040105#3 118573606#3 118573606#4 118573606#6 642035208#0"/>
    </vehicle>
    <vehicle id="bike48" type="bike_bicycle" depart="180.29" departLane="best">
        <route edges="118575975#2 118575975#3 118575975#4 118575975#5 118575975#6 295386152#1 295386152#2 295386152#3 698936203#2 698936203#3 1279915895#1 408161670#0 408161670#1 408161670#2 408161670#3 695691449"/>
    </vehicle>
    <vehicle id="bike49" type="bike_bicycle" depart="184.05" departLane="best" departSpeed="max">
        <route edges="695033472#2 295128790#6 695510004 -372469387#1 -372469387#0 693885803#6 693885803#8 693885803#9 693885803#11 -695668721#0"/>
    </vehicle>
    <vehicle id="bike50" type="bike_bicycle" depart="187.80" departLane="best">
        <route edges="372468201#2 295386175#2 35950897#2"/>
    </vehicle>
    <vehicle id="bike51" type="bike_bicycle" depart="191.56" departLane="best">
        <route edges="118573606#1 295128790#1 295128790#2 295128790#5 295128790#6 695510004 -372469387#1"/>
    </vehicle>
    <vehicle id="bike52" type="bike_bicycle" depart="195.32" departLane="best">
        <route edges="E0 695025562#1 693885803#0 693885803#2 693885803#3 295386175#0 295386175#1 -372468201#2 -372468201#1 -372468201#0"/>
    </vehicle>
    <vehicle id="bike53" type="bike_bicycle" depart="199.07" departLane="best">
        <route edges="931369479#0 828678898 408161670#12 1192334146#0"/>
    </vehicle>
    <vehicle id="bike54" type="bike_bicycle" depart="202.83" departLane="best" departSpeed="max">
        <route edges="695510006 118573606#3 828678900 -695040107#2 -695040107#1 -695040107#0 -931369478"/>
    </vehicle>
    <vehicle id="bike55" type="bike_bicycle" depart="206.58" departLane="best" departSpeed="max">
        <route edges="-695027208 302739240#3 693885802#2 693885802#3 695030266 1279915895#1 408161670#0 408161670#1 408161670#2 408161670#3 408161670#4 408161670#5 408161670#6 408161670#8 408161670#9 408161670#10 408161670#11 -828678898 -931369479#0 372467078#1"/>
    </vehicle>
    <vehicle id="bike56" type="bike_bicycle" depart="210.34" departLane="best">
        <route edges="118573606#0 118573606#1 118573606#3 118573606#4 118573606#6 118573606#8 118573606#9 118573606#10"/>
    </vehicle>
    <vehicle id="bike57" type="bike_bicycle" depart="214.10" departLane="best" departSpeed="max">
        <route edges="-695691449 408161670#4 408161670#5 408161670#6 -642035207#1 -642035207#0 695040107#0 695040107#1 695040107#2 695040107#3 295128790#2 295128790#5 295128790#6 695510004 -372469387#1 -372469387#0 693885803#6 693885803#8 693885803#9 828678849"/>
    </vehicle>
    <vehicle id="bike58" type="bike_bicycle" depart="217.85" departLane="best">
        <route edges="-295386152#7 -295386152#6 -295386152#4 -295386152#3 -295386152#2 -295386152#1 -118575975#6"/>
    </vehicle>
    <vehicle id="bike59" type="bike_bicycle" depart="221.61" departLane="best">
        <route edges="931369479#0 931369479#1 931369479#2 931369479#3 695040107#0 695040107#1 695040107#2 695040107#3 295128790#2 295128790#5 295128790#6 695510004 -372469387#1 -372469387#0 693885803#6 695673446#0 828678854#2 828678850#1"/>
    </vehicle>
    <vehicle id="bike60" type="bike_bicycle" depart="225.36" departLane="best">
        <route edges="-695040107#3 -695040107#2 -695040107#1"/>
    </vehicle>
    <vehicle id="bike61" type="bike_bicycle" depart="229.12" departLane="best">
        <route edges="-118575975#6 -828678745#1 -828678745#0"/>
    </vehicle>
    <vehicle id="bike62" type="bike_bicycle" depart="232.88" departLane="best" departSpeed="max">
        <route edges="-695691452 408161670#9 -642035208#1 931369479#3 695040107#0 695040107#1 828678899 408161670#3 695691449"/>
    </vehicle>
    <vehicle id="bike63" type="bike_bicycle" depart="236.63" departLane="best" departSpeed="max">
        <route edges="118575972#0 118575975#0 118575975#1 118575975#2 828678741#0 828678740 302739240#2"/>
    </vehicle>
    <vehicle id="bike64" type="bike_bicycle" depart="240.39" departLane="best">
        <route edges="-642035207#0 -931369478 118573606#6 118573606#8"/>
    </vehicle>
    <vehicle id="bike65" type="bike_bicycle" depart="244.14" departLane="best">
        <route edges="931369479#0 931369479#1 931369479#2 642035208#1 408161670#10 642067357#0"/>
    </vehicle>
    <vehicle id="bike66" type="bike_bicycle" depart="247.90" departLane="best">
        <route edges="295386152#4 -695040102#1 -695040102#0 695040105#3 118573606#3 828678900 -695040107#2 -695040107#1"/>
    </vehicle>
    <vehicle id="bike67" type="bike_bicycle" depart="251.66" departLane="best">
        <route edges="-295386152#4 698936203#2 698936203#3 1279915895#1 408161670#0 408161670#1 408161670#2 408161670#3 408161670#4 408161670#5 408161670#6 408161670#8 408161670#9 408161670#10 642067357#0"/>
    </vehicle>
    <vehicle id="bike68" type="bike_bicycle" depart="255.41" departLane="best">
        <route edges="-642035207#1 -642035207#0 695040107#0 695040107#1 695040107#2 -828678900"/>
    </vehicle>
    <vehicle id="bike69" type="bike_bicycle" depart="259.17" departLane="best" departSpeed="max">
        <route edges="698936203#0 698936203#1 698936203#2 698936203#3 1279915895#1 408161670#0 408161670#1 408161670#2 695691450 695040107#2 -828678900"/>
    </vehicle>
    <vehicle id="bike70" type="bike_bicycle" depart="262.92" departLane="best">
        <route edges="118573606#0 118573606#1 118573606#3 118573606#4 118573606#6 642035208#0 642035208#1 408161670#10 642067357#0"/>
    </vehicle>
    <vehicle id="bike71" type="bike_bicycle" depart="266.68" departLane="best" departSpeed="max">
        <route edges="-695040103 695040105#2 695040102#0 695040102#1"/>
    </vehicle>
    <vehicle id="bike72" type="bike_bicycle" depart="270.44" departLane="best" departSpeed="max">
        <route edges="641397122 694829084#1 E0 695025562#1 695025559 693885802#0 693885802#1 693885802#2 693885802#3 695030266 695040105#0 695040105#1 695040105#2 695040105#3 118573606#3 118573606#4 118573606#6 118573606#8"/>
    </vehicle>
    <vehicle id="bike73" type="bike_bicycle" depart="274.19" departLane="best">
        <route edges="-828678744 828678745#1 118575975#6 295386152#1 295386152#2 295386152#3 698936203#2 698936203#3 1279915895#1 408161670#0 408161670#1 408161670#2 695691450 695040107#2 695040107#3"/>
    </vehicle>
    <vehicle id="bike74" type="bike_bicycle" depart="277.95" departLane="best" departSpeed="max">
        <route edges="-295386152#8 -295386152#7 -295386152#6 -295386152#4 698936203#2 698936203#3 295128790#5 295128790#6 295128790#7 -372469388#1 -372469388#0 693885803#3 295386175#0 295386175#1 -372468201#2 -372468201#1"/>
    </vehicle>
    <vehicle id="bike75" type="bike_bicycle" depart="281.71" departLane="best" departSpeed="max">
        <route edges="-295386152#8 -295386152#7 -295386152#6 -295386152#4 -295386152#3 -295386152#2 -295386152#1 -118575975#6 -828678745#1 -828678745#0"/>
    </vehicle>
    <vehicle id="bike76" type="bike_bicycle" depart="285.46" departLane="best" departSpeed="max">
        <route edges="-695691452 408161670#9 -642035208#1 931369479#3 695040107#0 695040107#1 695040107#2 695040107#3 295128790#2 295128790#5 295128790#6 695510004 -372469387#1 -372469387#0 693885803#6 695673446#0 828678854#2"/>
    </vehicle>
    <vehicle id="bike77" type="bike_bicycle" depart="289.22" departLane="best">
        <route edges="695040102#0 -828678749#0 118573606#1 118573606#3 118573606#4 118573606#6 118573606#8"/>
    </vehicle>
    <vehicle id="bike78" type="bike_bicycle" depart="292.97" departLane="best">
        <route edges="408161670#9 -642035208#1 -931369479#2 -828678897 118573606#10 828678895"/>
    </vehicle>
    <vehicle id="bike79" type="bike_bicycle" depart="296.73" departLane="best" departSpeed="max">
        <route edges="-404718839 689583179#2 689583179#4 689583179#5 693885803#0 -828678845 -372469388#0"/>
    </vehicle>
    <vehicle id="bike80" type="bike_bicycle" depart="300.49" departLane="best" departSpeed="max">
        <route edges="-695691453 408161670#5 408161670#6 -642035207#1 -642035207#0 695040107#0 695040107#1 695040107#2 695040107#3 295128790#2 295128790#5 295128790#6 295128790#7 295128790#8 295128790#9 295128790#10 693885804#1 693885804#1.60 693416739#0 693416739#0.11"/>
    </vehicle>
    <vehicle id="bike81" type="bike_bicycle" depart="304.24" departLane="best">
        <route edges="408161670#12 408161670#13 -372467078#1 931369479#0 931369479#1 931369479#2 931369479#3"/>
    </vehicle>
    <vehicle id="bike82" type="bike_bicycle" depart="308.00" departLane="best">
        <route edges="118575975#6 295386152#1 828678748"/>
    </vehicle>
    <vehicle id="bike83" type="bike_bicycle" depart="311.75" departLane="best">
        <route edges="-695040107#2 -695040107#1 -695040107#0 -931369479#3 -931369479#2 -931369479#1 -931369479#0 -372467078#0"/>
    </vehicle>
    <vehicle id="bike84" type="bike_bicycle" depart="315.51" departLane="best">
        <route edges="118573606#1"/>
    </vehicle>
    <vehicle id="bike85" type="bike_bicycle" depart="319.27" departLane="best">
        <route edges="-118575972#2 118575975#0 118575975#1 118575975#2 118575975#3 118575975#4 118575975#5 118575975#6 295386152#1 295386152#2 295386152#3 698936203#2 698936203#3 1279915895#1 408161670#0 408161670#1 408161670#2 408161670#3 408161670#4 408161670#5 695691448"/>
    </vehicle>
    <vehicle id="bike86" type="bike_bicycle" depart="323.02" departLane="best">
        <route edges="408161670#13 -372467078#1 931369479#0 931369479#1 931369479#2"/>
    </vehicle>
    <vehicle id="bike87" type="bike_bicycle" depart="326.78" departLane="best">
        <route edges="695040105#3 118573606#3 118573606#4 118573606#6 642035208#0 642035208#1 408161670#10 642067357#0"/>
    </vehicle>
    <vehicle id="bike88" type="bike_bicycle" depart="330.53" departLane="best">
        <route edges="694830397.22 695025562#1 695025559 693885802#0 693885802#1 693885802#2 693885802#3 -295386152#0 -118575975#6 -118575975#5 -118575975#4 -118575975#3 828678741#0 828678741#1"/>
    </vehicle>
    <vehicle id="bike89" type="bike_bicycle" depart="334.29" departLane="best">
        <route edges="-295386152#4 -295386152#3 -295386152#2 -295386152#1 -118575975#6 -828678745#1 -828678745#0"/>
    </vehicle>
    <vehicle id="bike90" type="bike_bicycle" depart="338.05" departLane="best" departSpeed="max">
        <route edges="-695691449 408161670#4 408161670#5 408161670#6 -642035207#1 -642035207#0 695040107#0 695040107#1 695040107#2 695040107#3 295128790#2 295128790#5 295128790#6 295128790#7 -372469388#1 -372469388#0 693885803#3 295386175#0 295386175#1 -372468201#2 -372468201#1"/>
    </vehicle>
    <vehicle id="bike91" type="bike_bicycle" depart="341.80" departLane="best">
        <route edges="694829084#1 E0 695025562#1 695025559 693885802#0 693885802#1 693885802#2 693885802#3 -295386152#0 -118575975#6 -118575975#5"/>
    </vehicle>
    <vehicle id="bike92" type="bike_bicycle" depart="345.56" departLane="best">
        <route edges="-642035207#0 695040107#0 695040107#1 695040107#2 695040107#3 295128790#2 295128790#5 295128790#6 695510004 -372469387#1 -372469387#0 693885803#6 695673446#0 828678854#2"/>
    </vehicle>
    <vehicle id="bike93" type="bike_bicycle" depart="349.31" departLane="best">
        <route edges="118575975#5 118575975#6 295386152#1 295386152#2 295386152#3 698936203#2 698936203#3 695040105#0 695040105#1 695040105#2"/>
    </vehicle>
    <vehicle id="bike94" type="bike_bicycle" depart="353.07" departLane="best" departSpeed="max">
        <route edges="-828678747 698936203#1 698936203#2 698936203#3 295128790#5 295128790#6 695510004 -372469387#1 -372469387#0 693885803#6 695673446#0 828678854#2"/>
    </vehicle>
    <vehicle id="bike95" type="bike_bicycle" depart="356.83" departLane="best">
        <route edges="695025562#1 695025559 693885802#0 693885802#1 693885802#2 693885802#3 -295386152#0 -118575975#6 -118575975#5 -118575975#4 -118575975#3 -118575975#2 -118575975#1 828678742"/>
    </vehicle>
    <vehicle id="bike96" type="bike_bicycle" depart="360.58" departLane="best" departSpeed="max">
        <route edges="695033472#2 295128790#6 295128790#7 295128790#8 295128790#9 295128790#10 1096471623#0"/>
    </vehicle>
    <vehicle id="bike97" type="bike_bicycle" depart="364.34" departLane="best" departSpeed="max">
        <route edges="694830396 694830397 694830397.22 695025562#1 693885803#0 693885803#2 693885803#3 693885803#5 372469387#0"/>
    </vehicle>
    <vehicle id="bike98" type="bike_bicycle" depart="368.09" departLane="best" departSpeed="max">
        <route edges="695512891 689583179#4 302739240#0 302739240#1 -1255581684 828678741#1"/>
    </vehicle>
    <vehicle id="bike99" type="bike_bicycle" depart="371.85" departLane="best">
        <route edges="695040107#3 295128790#2 1279915895#1 408161670#0 408161670#1 695691454#0"/>
    </vehicle>
    <vehicle id="bike100" type="bike_bicycle" depart="375.61" departLane="best">
        <route edges="118575972#1"/>
    </vehicle>
    <vehicle id="bike101" type="bike_bicycle" depart="379.36" departLane="best">
        <route edges="694830397.22 695025562#1 693885803#0 -828678845"/>
    </vehicle>
    <vehicle id="bike102" type="bike_bicycle" depart="383.12" departLane="best">
        <route edges="-118575975#5 -118575975#4 -118575975#3 -118575975#2 -118575975#1 -118575975#0 118575972#1 689583179#1 689583179#2 689583179#4 689583179#5 693885803#0 693885803#2 693885803#3 693885803#5 693885803#6 693885803#8 693885803#9 693885803#11 -695668721#0"/>
    </vehicle>
    <vehicle id="bike103" type="bike_bicycle" depart="386.88" departLane="best" departSpeed="max">
        <route edges="-828678746 -295386152#2 -295386152#1 -118575975#6 -118575975#5 -118575975#4 -118575975#3 -118575975#2 -118575975#1 828678742"/>
    </vehicle>
    <vehicle id="bike104" type="bike_bicycle" depart="390.63" departLane="best">
        <route edges="931369479#0 931369479#1 -828678897 118573606#10"/>
    </vehicle>
    <vehicle id="bike105" type="bike_bicycle" depart="394.39" departLane="best">
        <route edges="931369479#3 695040107#0 695040107#1 828678899 408161670#3 408161670#4 408161670#5"/>
    </vehicle>
    <vehicle id="bike106" type="bike_bicycle" depart="398.14" departLane="best">
        <route edges="372469388#0 -372469388#0"/>
    </vehicle>
    <vehicle id="bike107" type="bike_bicycle" depart="401.90" departLane="best">
        <route edges="931369479#1 931369479#2 931369479#3 695040107#0 695040107#1 695040107#2 695040107#3 295128790#2 295128790#5 295128790#6 295128790#7 -372469388#1 -372469388#0 693885803#3 295386175#0 295386175#1 -372468201#2 -372468201#1 -372468201#0 -695511483"/>
    </vehicle>
    <vehicle id="bike108" type="bike_bicycle" depart="405.66" departLane="best">
        <route edges="828678900 -695040107#2 -695040107#1 -695040107#0 -931369479#3"/>
    </vehicle>
    <vehicle id="bike109" type="bike_bicycle" depart="409.41" departLane="best">
        <route edges="-372469388#0 693885803#3 295386175#0 295386175#1 -372468201#2 -372468201#1 -372468201#0 -695511483 35950897#3"/>
    </vehicle>
    <vehicle id="bike110" type="bike_bicycle" depart="413.17" departLane="best">
        <route edges="693885802#0 693885802#1 693885802#2 693885802#3 -295386152#0 -118575975#6 -118575975#5 -118575975#4 -118575975#3 -118575975#2 -118575975#1"/>
    </vehicle>
    <vehicle id="bike111" type="bike_bicycle" depart="416.92" departLane="best">
        <route edges="828678897 931369479#2 642035208#1"/>
    </vehicle>
    <vehicle id="bike112" type="bike_bicycle" depart="420.68" departLane="best">
        <route edges="118575972#1 689583179#1 689583179#2 689583179#4 689583179#5 693885803#0 693885803#2 693885803#3 693885803#5 693885803#6 693885803#8 693885803#9 828678849"/>
    </vehicle>