<?xml version="1.0" encoding="UTF-8"?>

<!-- generated on 2025-07-01 14:30:10.887240 by randomTrips.py v1_23_1+0000-676720d13f6
<configuration>
    <net-file value="osm.net.xml.gz"/>
    <output-trip-file value="osm.passenger.trips.xml"/>
    <route-file value="osm.passenger.rou.xml"/>
    <prefix value="veh"/>
    <trip-attributes value="departLane=&quot;best&quot;"/>
    <fringe-start-attributes value="departSpeed=&quot;max&quot;"/>
    <vehicle-class value="passenger"/>
    <lanes value="True"/>
    <fringe-factor value="5"/>
    <allow-fringe.min-length value="10000.0"/>
    <edge-permission value="passenger"/>
    <via-edge-types value="highway.motorway,highway.motorway_link,highway.trunk_link,highway.primary_link,highway.secondary_link,highway.tertiary_link"/>
    <min-distance value="300.0"/>
    <min-distance.fringe value="100.0"/>
    <remove-loops value="True"/>
    <validate value="True"/>
    <insertion-density value="120.0"/>
</configuration>
-->

<routes xmlns:xsi="http://www.w3.org/2001/XMLSchema-instance" xsi:noNamespaceSchemaLocation="http://sumo.dlr.de/xsd/routes_file.xsd">
    <vType id="veh_passenger" vClass="passenger"/>
    <trip id="veh0" depart="0.00" from="295128790#2" to="295128790#8" departLane="best" type="veh_passenger"/>
    <trip id="veh1" depart="2.58" from="118575972#0" to="693416739#0" departLane="best" type="veh_passenger" departSpeed="max"/>
    <trip id="veh2" depart="5.16" from="118575972#0" to="693885803#0" departLane="best" type="veh_passenger" departSpeed="max"/>
    <trip id="veh3" depart="7.74" from="695040102#1" to="-118575972#0" departLane="best" type="veh_passenger"/>
    <trip id="veh4" depart="10.32" from="828678749#0" to="372467078#1" departLane="best" type="veh_passenger"/>
    <trip id="veh5" depart="12.90" from="-696756023" to="-828678745#0" departLane="best" type="veh_passenger" departSpeed="max"/>
    <trip id="veh6" depart="15.48" from="695510006" to="693885803#2" departLane="best" type="veh_passenger" departSpeed="max"/>
    <trip id="veh7" depart="18.05" from="302751284" to="693416739#1" departLane="best" type="veh_passenger" departSpeed="max"/>
    <trip id="veh8" depart="20.63" from="695040105#2" to="693885803#6" departLane="best" type="veh_passenger"/>
    <trip id="veh9" depart="23.21" from="118575975#0" to="35950897#2" departLane="best" type="veh_passenger"/>
    <trip id="veh10" depart="25.79" from="-695040102#0" to="295128790#9" departLane="best" type="veh_passenger"/>
    <trip id="veh11" depart="28.37" from="693885802#2" to="408161670#0" departLane="best" type="veh_passenger"/>
    <trip id="veh12" depart="30.95" from="302751284" to="295128790#6" departLane="best" type="veh_passenger" departSpeed="max"/>
    <trip id="veh13" depart="33.53" from="-828678747" to="408161670#10" departLane="best" type="veh_passenger" departSpeed="max"/>
    <trip id="veh14" depart="36.11" from="695510006" to="35950897#3" departLane="best" type="veh_passenger" departSpeed="max"/>
    <trip id="veh15" depart="38.69" from="689583179#0" to="295386152#8" departLane="best" type="veh_passenger" departSpeed="max"/>
    <trip id="veh16" depart="41.27" from="695025562#1" to="408161670#3" departLane="best" type="veh_passenger"/>
    <trip id="veh17" depart="43.85" from="-404718839" to="408161670#10" departLane="best" type="veh_passenger" departSpeed="max"/>
    <trip id="veh18" depart="46.43" from="-828678742" to="408161670#5" departLane="best" type="veh_passenger" departSpeed="max"/>
    <trip id="veh19" depart="49.01" from="641397122" to="295128790#1" departLane="best" type="veh_passenger" departSpeed="max"/>
    <trip id="veh20" depart="51.58" from="-118575972#2" to="35950897#3" departLane="best" type="veh_passenger"/>
    <trip id="veh21" depart="54.16" from="-696756023" to="689583179#5" departLane="best" type="veh_passenger" departSpeed="max"/>
    <trip id="veh22" depart="56.74" from="-695027208" to="695040105#3" departLane="best" type="veh_passenger" departSpeed="max"/>
    <trip id="veh23" depart="59.32" from="694830397" to="118573606#10" departLane="best" type="veh_passenger"/>
    <trip id="veh24" depart="61.90" from="689583179#0" to="695030266" departLane="best" type="veh_passenger" departSpeed="max"/>
    <trip id="veh25" depart="64.48" from="118575972#0" to="118573606#3" departLane="best" type="veh_passenger" departSpeed="max"/>
    <trip id="veh26" depart="67.06" from="695040102#0" to="295128790#10" departLane="best" type="veh_passenger"/>
    <trip id="veh27" depart="69.64" from="-828678741#0" to="408161670#4" departLane="best" type="veh_passenger"/>
    <trip id="veh28" depart="72.22" from="118573606#0" to="408161670#8" departLane="best" type="veh_passenger"/>
    <trip id="veh29" depart="74.80" from="689583179#0" to="-295386152#6" departLane="best" type="veh_passenger" departSpeed="max"/>
    <trip id="veh30" depart="77.38" from="E0" to="828678746" departLane="best" type="veh_passenger"/>
    <trip id="veh31" depart="79.96" from="302751284" to="E2" departLane="best" type="veh_passenger" departSpeed="max"/>
    <trip id="veh32" depart="82.54" from="828678749#0" to="E4" departLane="best" type="veh_passenger"/>
    <trip id="veh33" depart="85.11" from="-828678747" to="35950897#3" departLane="best" type="veh_passenger" departSpeed="max"/>
    <trip id="veh34" depart="87.69" from="689583179#0" to="695040105#1" departLane="best" type="veh_passenger" departSpeed="max"/>
    <trip id="veh35" depart="90.27" from="-695040102#0" to="295128790#10" departLane="best" type="veh_passenger"/>
    <trip id="veh36" depart="92.85" from="118575975#5" to="408161670#12" departLane="best" type="veh_passenger"/>
    <trip id="veh37" depart="95.43" from="-695027208" to="408161670#9" departLane="best" type="veh_passenger" departSpeed="max"/>
    <trip id="veh38" depart="98.01" from="302751284" to="118575975#4" departLane="best" type="veh_passenger" departSpeed="max"/>
    <trip id="veh39" depart="100.59" from="695040105#0" to="35950897#3" departLane="best" type="veh_passenger"/>
    <trip id="veh40" depart="103.17" from="-828678743" to="1096471623#0" departLane="best" type="veh_passenger" departSpeed="max"/>
    <trip id="veh41" depart="105.75" from="295128790#2" to="693885803#3" departLane="best" type="veh_passenger"/>
    <trip id="veh42" depart="108.33" from="694829084#1" to="295128790#5" departLane="best" type="veh_passenger"/>
    <trip id="veh43" depart="110.91" from="693885802#2" to="295386152#8" departLane="best" type="veh_passenger"/>
    <trip id="veh44" depart="113.49" from="-118575975#0" to="695511482#4" departLane="best" type="veh_passenger"/>
    <trip id="veh45" depart="116.07" from="693885802#2" to="295386152#8" departLane="best" type="veh_passenger"/>
    <trip id="veh46" depart="118.64" from="698936203#0" to="693416739#1" departLane="best" type="veh_passenger" departSpeed="max"/>
    <trip id="veh47" depart="121.22" from="-828678746" to="118573606#10" departLane="best" type="veh_passenger" departSpeed="max"/>
    <trip id="veh48" depart="123.80" from="695040102#1" to="828678741#1" departLane="best" type="veh_passenger"/>
    <trip id="veh49" depart="126.38" from="695040102#1" to="302739240#0" departLane="best" type="veh_passenger"/>
    <trip id="veh50" depart="128.96" from="695025562#1" to="-828678745#1" departLane="best" type="veh_passenger"/>
    <trip id="veh51" depart="131.54" from="695510006" to="779462187#1.9" departLane="best" type="veh_passenger" departSpeed="max"/>
    <trip id="veh52" depart="134.12" from="118575972#0" to="779462187#1.9" departLane="best" type="veh_passenger" departSpeed="max"/>
    <trip id="veh53" depart="136.70" from="693885802#3" to="408161670#12" departLane="best" type="veh_passenger"/>
    <trip id="veh54" depart="139.28" from="828678744" to="1096471623#0" departLane="best" type="veh_passenger"/>
    <trip id="veh55" depart="141.86" from="E0" to="295128790#1" departLane="best" type="veh_passenger"/>
    <trip id="veh56" depart="144.44" from="E0" to="295386152#8" departLane="best" type="veh_passenger"/>
    <trip id="veh57" depart="147.02" from="-828678741#1" to="408161670#5" departLane="best" type="veh_passenger" departSpeed="max"/>
    <trip id="veh58" depart="149.60" from="694830396" to="35950897#3" departLane="best" type="veh_passenger" departSpeed="max"/>
    <trip id="veh59" depart="152.17" from="-118575972#2" to="828678746" departLane="best" type="veh_passenger"/>
    <trip id="veh60" depart="154.75" from="302751284" to="-641423230" departLane="best" type="veh_passenger" departSpeed="max"/>
    <trip id="veh61" depart="157.33" from="295386152#1" to="779462187#1.9" departLane="best" type="veh_passenger"/>
    <trip id="veh62" depart="159.91" from="-828678743" to="408161670#3" departLane="best" type="veh_passenger" departSpeed="max"/>
    <trip id="veh63" depart="162.49" from="698936203#0" to="693885803#6" departLane="best" type="veh_passenger" departSpeed="max"/>
    <trip id="veh64" depart="165.07" from="295128790#8" to="693416739#1" departLane="best" type="veh_passenger"/>
    <trip id="veh65" depart="167.65" from="-118575972#2" to="35950897#2" departLane="best" type="veh_passenger"/>
    <trip id="veh66" depart="170.23" from="695025562#1" to="1279915895#1" departLane="best" type="veh_passenger"/>
    <trip id="veh67" depart="172.81" from="-696756023" to="693416739#0.11" departLane="best" type="veh_passenger" departSpeed="max"/>
    <trip id="veh68" depart="175.39" from="693885802#2" to="372467078#0" departLane="best" type="veh_passenger"/>
    <trip id="veh69" depart="177.97" from="641397122" to="295386152#3" departLane="best" type="veh_passenger" departSpeed="max"/>
    <trip id="veh70" depart="180.55" from="-828678741#1" to="408161670#4" departLane="best" type="veh_passenger" departSpeed="max"/>
    <trip id="veh71" depart="183.13" from="698936203#0" to="693885803#5" departLane="best" type="veh_passenger" departSpeed="max"/>
    <trip id="veh72" depart="185.71" from="695040105#2" to="693416739#1" departLane="best" type="veh_passenger"/>
    <trip id="veh73" depart="188.28" from="295128790#2" to="35950897#3" departLane="best" type="veh_passenger"/>
    <trip id="veh74" depart="190.86" from="689583179#0" to="118573606#6" departLane="best" type="veh_passenger" departSpeed="max"/>
    <trip id="veh75" depart="193.44" from="302751284" to="-118575972#0" departLane="best" type="veh_passenger" departSpeed="max"/>
    <trip id="veh76" depart="196.02" from="302751284" to="695040105#2" departLane="best" type="veh_passenger" departSpeed="max"/>
    <trip id="veh77" depart="198.60" from="689583179#0" to="693885803#2" departLane="best" type="veh_passenger" departSpeed="max"/>
    <trip id="veh78" depart="201.18" from="-295386152#2" to="693885804#1" departLane="best" type="veh_passenger"/>
    <trip id="veh79" depart="203.76" from="-828678744" to="408161670#9" departLane="best" type="veh_passenger"/>
    <trip id="veh80" depart="206.34" from="-295386152#8" to="408161670#10" departLane="best" type="veh_passenger" departSpeed="max"/>
    <trip id="veh81" depart="208.92" from="118575972#0" to="35950897#3" departLane="best" type="veh_passenger" departSpeed="max"/>
    <trip id="veh82" depart="211.50" from="694830397" to="408161670#10" departLane="best" type="veh_passenger"/>
    <trip id="veh83" depart="214.08" from="-118575975#6" to="693416739#1" departLane="best" type="veh_passenger"/>
    <trip id="veh84" depart="216.66" from="-828678748" to="693885803#3" departLane="best" type="veh_passenger" departSpeed="max"/>
    <trip id="veh85" depart="219.24" from="828678749#0" to="408161670#12" departLane="best" type="veh_passenger"/>
    <trip id="veh86" depart="221.81" from="694829084#1" to="-641423230" departLane="best" type="veh_passenger"/>
    <trip id="veh87" depart="224.39" from="-828678741#1" to="695511482#4" departLane="best" type="veh_passenger" departSpeed="max"/>
    <trip id="veh88" depart="226.97" from="695510006" to="693885803#2" departLane="best" type="veh_passenger" departSpeed="max"/>
    <trip id="veh89" depart="229.55" from="695025559" to="372467078#1" departLane="best" type="veh_passenger"/>
    <trip id="veh90" depart="232.13" from="641397122" to="372467078#1" departLane="best" type="veh_passenger" departSpeed="max"/>
    <trip id="veh91" depart="234.71" from="695510006" to="779462187#1.9" departLane="best" type="veh_passenger" departSpeed="max"/>
    <trip id="veh92" depart="237.29" from="295128790#2" to="779462187#1.4" departLane="best" type="veh_passenger"/>
    <trip id="veh93" depart="239.87" from="295128790#2" to="779462187#1.9" departLane="best" type="veh_passenger"/>
    <trip id="veh94" depart="242.45" from="302751284" to="-118575975#5" departLane="best" type="veh_passenger" departSpeed="max"/>
    <trip id="veh95" depart="245.03" from="695510006" to="295128790#10" departLane="best" type="veh_passenger" departSpeed="max"/>
    <trip id="veh96" depart="247.61" from="-696756023" to="695027208" departLane="best" type="veh_passenger" departSpeed="max"/>
    <trip id="veh97" depart="250.19" from="-696756023" to="295128790#7" departLane="best" type="veh_passenger" departSpeed="max"/>
    <trip id="veh98" depart="252.77" from="693885804#1" to="35950897#3" departLane="best" type="veh_passenger"/>
    <trip id="veh99" depart="255.34" from="689583179#0" to="408161670#4" departLane="best" type="veh_passenger" departSpeed="max"/>
    <trip id="veh100" depart="257.92" from="694830396" to="35950897#3" departLane="best" type="veh_passenger" departSpeed="max"/>
    <trip id="veh101" depart="260.50" from="295128790#1" to="1096471623#0" departLane="best" type="veh_passenger"/>
    <trip id="veh102" depart="263.08" from="118573606#1" to="1096471623#0" departLane="best" type="veh_passenger"/>
    <trip id="veh103" depart="265.66" from="689583179#0" to="695040105#3" departLane="best" type="veh_passenger" departSpeed="max"/>
    <trip id="veh104" depart="268.24" from="-828678749#1" to="-118575972#2" departLane="best" type="veh_passenger"/>
    <trip id="veh105" depart="270.82" from="695040105#1" to="408161670#13" departLane="best" type="veh_passenger"/>
    <trip id="veh106" depart="273.40" from="689583179#1" to="35950897#3" departLane="best" type="veh_passenger"/>
    <trip id="veh107" depart="275.98" from="641423230" to="408161670#8" departLane="best" type="veh_passenger" departSpeed="max"/>
    <trip id="veh108" depart="278.56" from="694830396" to="828678748" departLane="best" type="veh_passenger" departSpeed="max"/>
    <trip id="veh109" depart="281.14" from="-118575975#0" to="408161670#8" departLane="best" type="veh_passenger"/>
    <trip id="veh110" depart="283.72" from="689583179#5" to="35950897#2" departLane="best" type="veh_passenger"/>
    <trip id="veh111" depart="286.30" from="-828678748" to="35950897#3" departLane="best" type="veh_passenger" departSpeed="max"/>
    <trip id="veh112" depart="288.87" from="641397122" to="-641423230" departLane="best" type="veh_passenger" departSpeed="max"/>
    <trip id="veh113" depart="291.45" from="-295386152#8" to="408161670#5" departLane="best" type="veh_passenger" departSpeed="max"/>
    <trip id="veh114" depart="294.03" from="828678745#0" to="E4" departLane="best" type="veh_passenger" departSpeed="max"/>
    <trip id="veh115" depart="296.61" from="698936203#2" to="295128790#10" departLane="best" type="veh_passenger"/>
    <trip id="veh116" depart="299.19" from="641397122" to="-828678744" departLane="best" type="veh_passenger" departSpeed="max"/>
    <trip id="veh117" depart="301.77" from="695040105#0" to="693416739#1" departLane="best" type="veh_passenger"/>
    <trip id="veh118" depart="304.35" from="689583179#0" to="408161670#2" departLane="best" type="veh_passenger" departSpeed="max"/>
    <trip id="veh119" depart="306.93" from="694830396" to="693885803#9" departLane="best" type="veh_passenger" departSpeed="max"/>
    <trip id="veh120" depart="309.51" from="694830397" to="295128790#5" departLane="best" type="veh_passenger"/>
    <trip id="veh121" depart="312.09" from="-828678747" to="693416739#1" departLane="best" type="veh_passenger" departSpeed="max"/>
    <trip id="veh122" depart="314.67" from="695040105#2" to="689583179#5" departLane="best" type="veh_passenger"/>
    <trip id="veh123" depart="317.25" from="295128790#2" to="779462187#1.9" departLane="best" type="veh_passenger"/>
    <trip id="veh124" depart="319.83" from="689583179#0" to="408161670#10" departLane="best" type="veh_passenger" departSpeed="max"/>
    <trip id="veh125" depart="322.40" from="698936203#3" to="693416739#0" departLane="best" type="veh_passenger"/>
    <trip id="veh126" depart="324.98" from="295128790#6" to="35950897#3" departLane="best" type="veh_passenger"/>
    <trip id="veh127" depart="327.56" from="641397122" to="118575975#0" departLane="best" type="veh_passenger" departSpeed="max"/>
    <trip id="veh128" depart="330.14" from="689583179#0" to="372467078#1" departLane="best" type="veh_passenger" departSpeed="max"/>
    <trip id="veh129" depart="332.72" from="694830397.22" to="-295386152#2" departLane="best" type="veh_passenger"/>
    <trip id="veh130" depart="335.30" from="-295386152#7" to="693416739#0" departLane="best" type="veh_passenger"/>
    <trip id="veh131" depart="337.88" from="689583179#0" to="408161670#9" departLane="best" type="veh_passenger" departSpeed="max"/>
    <trip id="veh132" depart="340.46" from="694830396" to="408161670#2" departLane="best" type="veh_passenger" departSpeed="max"/>
    <trip id="veh133" depart="343.04" from="695510006" to="779462187#1.9" departLane="best" type="veh_passenger" departSpeed="max"/>
    <trip id="veh134" depart="345.62" from="694829084#1" to="695040105#2" departLane="best" type="veh_passenger"/>
    <trip id="veh135" depart="348.20" from="698936203#3" to="E4" departLane="best" type="veh_passenger"/>
    <trip id="veh136" depart="350.78" from="694830396" to="408161670#5" departLane="best" type="veh_passenger" departSpeed="max"/>
    <trip id="veh137" depart="353.36" from="-828678746" to="693416739#1" departLane="best" type="veh_passenger" departSpeed="max"/>
    <trip id="veh138" depart="355.93" from="695510006" to="693885803#6" departLane="best" type="veh_passenger" departSpeed="max"/>
    <trip id="veh139" depart="358.51" from="-828678746" to="408161670#9" departLane="best" type="veh_passenger" departSpeed="max"/>
    <trip id="veh140" depart="361.09" from="-828678747" to="408161670#6" departLane="best" type="veh_passenger" departSpeed="max"/>
    <trip id="veh141" depart="363.67" from="693885802#3" to="408161670#4" departLane="best" type="veh_passenger"/>
    <trip id="veh142" depart="366.25" from="-295386152#8" to="693885803#3" departLane="best" type="veh_passenger" departSpeed="max"/>
    <trip id="veh143" depart="368.83" from="641397122" to="828678743" departLane="best" type="veh_passenger" departSpeed="max"/>
    <trip id="veh144" depart="371.41" from="694830396" to="-828678741#0" departLane="best" type="veh_passenger" departSpeed="max"/>
    <trip id="veh145" depart="373.99" from="-828678748" to="118573606#3" departLane="best" type="veh_passenger" departSpeed="max"/>
    <trip id="veh146" depart="376.57" from="695040105#1" to="689583179#4" departLane="best" type="veh_passenger"/>
    <trip id="veh147" depart="379.15" from="E0" to="118573606#8" departLane="best" type="veh_passenger"/>
    <trip id="veh148" depart="381.73" from="689583179#0" to="828678746" departLane="best" type="veh_passenger" departSpeed="max"/>
    <trip id="veh149" depart="384.31" from="118575972#0" to="-372467078#0" departLane="best" type="veh_passenger" departSpeed="max"/>
    <trip id="veh150" depart="386.89" from="-828678744" to="408161670#8" departLane="best" type="veh_passenger"/>
    <trip id="veh151" depart="389.46" from="694830396" to="118575975#2" departLane="best" type="veh_passenger" departSpeed="max"/>
    <trip id="veh152" depart="392.04" from="641397122" to="408161670#13" departLane="best" type="veh_passenger" departSpeed="max"/>
    <trip id="veh153" depart="394.62" from="302751284" to="408161670#6" departLane="best" type="veh_passenger" departSpeed="max"/>
    <trip id="veh154" depart="397.20" from="828678745#0" to="779462187#1.9" departLane="best" type="veh_passenger" departSpeed="max"/>
    <trip id="veh155" depart="399.78" from="302751284" to="408161670#12" departLane="best" type="veh_passenger" departSpeed="max"/>
    <trip id="veh156" depart="402.36" from="695025562#1" to="295386152#3" departLane="best" type="veh_passenger"/>
    <trip id="veh157" depart="404.94" from="-695027208" to="695040105#3" departLane="best" type="veh_passenger" departSpeed="max"/>
    <trip id="veh158" depart="407.52" from="695510006" to="35950897#3" departLane="best" type="veh_passenger" departSpeed="max"/>
    <trip id="veh159" depart="410.10" from="-118575975#0" to="779462187#1.9" departLane="best" type="veh_passenger"/>
    <trip id="veh160" depart="412.68" from="-828678746" to="118573606#12" departLane="best" type="veh_passenger" departSpeed="max"/>
    <trip id="veh161" depart="415.26" from="118575975#4" to="35950897#3" departLane="best" type="veh_passenger"/>
    <trip id="veh162" depart="417.84" from="641423230" to="408161670#9" departLane="best" type="veh_passenger" departSpeed="max"/>
    <trip id="veh163" depart="420.42" from="E0" to="-372467078#0" departLane="best" type="veh_passenger"/>
    <trip id="veh164" depart="422.99" from="-695040102#0" to="693885803#3" departLane="best" type="veh_passenger"/>
    <trip id="veh165" depart="425.57" from="689583179#0" to="408161670#8" departLane="best" type="veh_passenger" departSpeed="max"/>
    <trip id="veh166" depart="428.15" from="302739240#2" to="408161670#8" departLane="best" type="veh_passenger"/>
    <trip id="veh167" depart="430.73" from="302751284" to="118575975#2" departLane="best" type="veh_passenger" departSpeed="max"/>
    <trip id="veh168" depart="433.31" from="698936203#3" to="-372467078#0" departLane="best" type="veh_passenger"/>
    <trip id="veh169" depart="435.89" from="-828678741#0" to="695040105#0" departLane="best" type="veh_passenger"/>
    <trip id="veh170" depart="438.47" from="695040105#0" to="693416739#1" departLane="best" type="veh_passenger"/>
    <trip id="veh171" depart="441.05" from="302739240#0" to="118573606#0" departLane="best" type="veh_passenger"/>
    <trip id="veh172" depart="443.63" from="302751284" to="695040105#3" departLane="best" type="veh_passenger" departSpeed="max"/>
    <trip id="veh173" depart="446.21" from="695040105#1" to="693885803#5" departLane="best" type="veh_passenger"/>
    <trip id="veh174" depart="448.79" from="302751284" to="695027208" departLane="best" type="veh_passenger" departSpeed="max"/>
    <trip id="veh175" depart="451.37" from="-828678747" to="693885803#6" departLane="best" type="veh_passenger" departSpeed="max"/>
    <trip id="veh176" depart="453.95" from="-118575975#2" to="35950897#3" departLane="best" type="veh_passenger"/>
    <trip id="veh177" depart="456.52" from="295128790#1" to="35950897#3" departLane="best" type="veh_passenger"/>
    <trip id="veh178" depart="459.10" from="-118575975#2" to="695040105#1" departLane="best" type="veh_passenger"/>
    <trip id="veh179" depart="461.68" from="-828678748" to="408161670#10" departLane="best" type="veh_passenger" departSpeed="max"/>
    <trip id="veh180" depart="464.26" from="695040105#3" to="779462187#1.4" departLane="best" type="veh_passenger"/>
    <trip id="veh181" depart="466.84" from="-295386152#8" to="-118575975#1" departLane="best" type="veh_passenger" departSpeed="max"/>
    <trip id="veh182" depart="469.42" from="698936203#3" to="779462187#1.9" departLane="best" type="veh_passenger"/>
    <trip id="veh183" depart="472.00" from="302739240#2" to="35950897#3" departLane="best" type="veh_passenger"/>
    <trip id="veh184" depart="474.58" from="-828678748" to="693416739#0.11" departLane="best" type="veh_passenger" departSpeed="max"/>
    <trip id="veh185" depart="477.16" from="698936203#0" to="404718839" departLane="best" type="veh_passenger" departSpeed="max"/>
    <trip id="veh186" depart="479.74" from="695040105#0" to="295128790#9" departLane="best" type="veh_passenger"/>
    <trip id="veh187" depart="482.32" from="694830396" to="695040105#3" departLane="best" type="veh_passenger" departSpeed="max"/>
    <trip id="veh188" depart="484.90" from="-695027208" to="408161670#6" departLane="best" type="veh_passenger" departSpeed="max"/>
    <trip id="veh189" depart="487.48" from="695510006" to="693885803#6" departLane="best" type="veh_passenger" departSpeed="max"/>
    <trip id="veh190" depart="490.05" from="641397122" to="689583179#1" departLane="best" type="veh_passenger" departSpeed="max"/>
    <trip id="veh191" depart="492.63" from="698936203#0" to="408161670#8" departLane="best" type="veh_passenger" departSpeed="max"/>
    <trip id="veh192" depart="495.21" from="695040102#1" to="693885804#1.60" departLane="best" type="veh_passenger"/>
    <trip id="veh193" depart="497.79" from="295386152#4" to="689583179#2" departLane="best" type="veh_passenger"/>
    <trip id="veh194" depart="500.37" from="-828678746" to="-372467078#0" departLane="best" type="veh_passenger" departSpeed="max"/>
    <trip id="veh195" depart="502.95" from="641397122" to="1279915895#1" departLane="best" type="veh_passenger" departSpeed="max"/>
    <trip id="veh196" depart="505.53" from="698936203#0" to="828678741#1" departLane="best" type="veh_passenger" departSpeed="max"/>
    <trip id="veh197" depart="508.11" from="828678741#0" to="35950897#3" departLane="best" type="veh_passenger"/>
    <trip id="veh198" depart="510.69" from="693885802#3" to="408161670#3" departLane="best" type="veh_passenger"/>
    <trip id="veh199" depart="513.27" from="302751284" to="408161670#0" departLane="best" type="veh_passenger" departSpeed="max"/>
    <trip id="veh200" depart="515.85" from="118575975#0" to="118573606#6" departLane="best" type="veh_passenger"/>
    <trip id="veh201" depart="518.43" from="-828678741#1" to="695511482#4" departLane="best" type="veh_passenger" departSpeed="max"/>
    <trip id="veh202" depart="521.01" from="-295386152#7" to="372467078#1" departLane="best" type="veh_passenger"/>
    <trip id="veh203" depart="523.58" from="694830397" to="118573606#12" departLane="best" type="veh_passenger"/>
    <trip id="veh204" depart="526.16" from="302751284" to="118575975#5" departLane="best" type="veh_passenger" departSpeed="max"/>
    <trip id="veh205" depart="528.74" from="695040105#2" to="695511482#4" departLane="best" type="veh_passenger"/>
    <trip id="veh206" depart="531.32" from="694830396" to="408161670#8" departLane="best" type="veh_passenger" departSpeed="max"/>
    <trip id="veh207" depart="533.90" from="689583179#0" to="35950897#3" departLane="best" type="veh_passenger" departSpeed="max"/>
    <trip id="veh208" depart="536.48" from="695040102#1" to="689583179#1" departLane="best" type="veh_passenger"/>
    <trip id="veh209" depart="539.06" from="828678745#0" to="E2" departLane="best" type="veh_passenger" departSpeed="max"/>
    <trip id="veh210" depart="541.64" from="302751284" to="693416739#1" departLane="best" type="veh_passenger" departSpeed="max"/>
    <trip id="veh211" depart="544.22" from="695030266" to="118573606#6" departLane="best" type="veh_passenger"/>
    <trip id="veh212" depart="546.80" from="695510006" to="693416739#1" departLane="best" type="veh_passenger" departSpeed="max"/>
    <trip id="veh213" depart="549.38" from="118575972#0" to="408161670#8" departLane="best" type="veh_passenger" departSpeed="max"/>
    <trip id="veh214" depart="551.96" from="302751284" to="-118575975#4" departLane="best" type="veh_passenger" departSpeed="max"/>
    <trip id="veh215" depart="554.54" from="302751284" to="-118575975#4" departLane="best" type="veh_passenger" departSpeed="max"/>
    <trip id="veh216" depart="557.12" from="-828678745#1" to="35950897#2" departLane="best" type="veh_passenger"/>
    <trip id="veh217" depart="559.69" from="695040105#3" to="693416739#1" departLane="best" type="veh_passenger"/>
    <trip id="veh218" depart="562.27" from="-828678742" to="35950897#2" departLane="best" type="veh_passenger" departSpeed="max"/>
    <trip id="veh219" depart="564.85" from="698936203#0" to="693885803#11" departLane="best" type="veh_passenger" departSpeed="max"/>
    <trip id="veh220" depart="567.43" from="118575975#6" to="118573606#9" departLane="best" type="veh_passenger"/>
    <trip id="veh221" depart="570.01" from="118575975#5" to="408161670#3" departLane="best" type="veh_passenger"/>
    <trip id="veh222" depart="572.59" from="695025562#1" to="372467078#1" departLane="best" type="veh_passenger"/>
    <trip id="veh223" depart="575.17" from="694830396" to="693885803#9" departLane="best" type="veh_passenger" departSpeed="max"/>
    <trip id="veh224" depart="577.75" from="694830397.22" to="695040102#1" departLane="best" type="veh_passenger"/>
    <trip id="veh225" depart="580.33" from="-404718839" to="696756023" departLane="best" type="veh_passenger" departSpeed="max"/>
    <trip id="veh226" depart="582.91" from="689583179#0" to="295386152#8" departLane="best" type="veh_passenger" departSpeed="max"/>
    <trip id="veh227" depart="585.49" from="302751284" to="696756023" departLane="best" type="veh_passenger" departSpeed="max"/>
    <trip id="veh228" depart="588.07" from="695510006" to="35950897#3" departLane="best" type="veh_passenger" departSpeed="max"/>
    <trip id="veh229" depart="590.65" from="698936203#0" to="408161670#11" departLane="best" type="veh_passenger" departSpeed="max"/>
    <trip id="veh230" depart="593.22" from="641397122" to="828678746" departLane="best" type="veh_passenger" departSpeed="max"/>
    <trip id="veh231" depart="595.80" from="694830396" to="-641423230" departLane="best" type="veh_passenger" departSpeed="max"/>
    <trip id="veh232" depart="598.38" from="689583179#0" to="35950897#3" departLane="best" type="veh_passenger" departSpeed="max"/>