<?xml version="1.0" encoding="UTF-8"?>

<!-- generated on 2025-05-29 11:49:11.122010 by randomTrips.py v1_22_0+0002-63e50f52594
<configuration>
    <net-file value="osm.net.xml.gz"/>
    <output-trip-file value="osm.passenger.trips.xml"/>
    <route-file value="osm.passenger.rou.xml"/>
    <prefix value="veh"/>
    <trip-attributes value="departLane=&quot;best&quot;"/>
    <fringe-start-attributes value="departSpeed=&quot;max&quot;"/>
    <vehicle-class value="passenger"/>
    <lanes value="True"/>
    <fringe-factor value="5"/>
    <allow-fringe.min-length value="10000.0"/>
    <via-edge-types value="highway.motorway,highway.motorway_link,highway.trunk_link,highway.primary_link,highway.secondary_link,highway.tertiary_link"/>
    <min-distance value="300.0"/>
    <min-distance.fringe value="100.0"/>
    <remove-loops value="True"/>
    <validate value="True"/>
    <insertion-density value="120.0"/>
</configuration>
-->

<!-- generated on 2025-05-29 11:49:10 by Eclipse SUMO duarouter Version 1.22.0
<duarouterConfiguration xmlns:xsi="http://www.w3.org/2001/XMLSchema-instance" xsi:noNamespaceSchemaLocation="http://sumo.dlr.de/xsd/duarouterConfiguration.xsd">

    <input>
        <net-file value="osm.net.xml.gz"/>
        <route-files value="osm.passenger.trips.xml"/>
    </input>

    <output>
        <output-file value="osm.passenger.rou.xml"/>
        <alternatives-output value="NUL"/>
    </output>

    <processing>
        <remove-loops value="true"/>
    </processing>

    <time>
        <begin value="0.0"/>
        <end value="3600.0"/>
    </time>

    <report>
        <no-warnings value="true"/>
        <ignore-errors value="true"/>
        <no-step-log value="true"/>
    </report>

</duarouterConfiguration>
-->

<routes xmlns:xsi="http://www.w3.org/2001/XMLSchema-instance" xsi:noNamespaceSchemaLocation="http://sumo.dlr.de/xsd/routes_file.xsd">
    <vType id="veh_passenger" vClass="passenger"/>
    <vehicle id="veh0" type="veh_passenger" depart="0.00" departLane="best">
        <route edges="295128790#5 295128790#6 295128790#7 295128790#8"/>
    </vehicle>
    <vehicle id="veh2" type="veh_passenger" depart="5.12" departLane="best" departSpeed="max">
        <route edges="118575972#0 118575972#1 689583179#1 689583179#2 689583179#4 689583179#5 693885804#1 693885804#1.60 693416739#0"/>
    </vehicle>
    <vehicle id="veh3" type="veh_passenger" depart="7.67" departLane="best" departSpeed="max">
        <route edges="118575972#0 118575972#1 689583179#1 689583179#2 689583179#4 689583179#5 693885803#0"/>
    </vehicle>
    <vehicle id="veh4" type="veh_passenger" depart="10.23" departLane="best">
        <route edges="695040102#1 -295386152#4 -295386152#3 -295386152#2 -295386152#1 -118575975#6 -118575975#5 -118575975#4 -118575975#3 -118575975#2 -118575975#1 -118575975#0 -118575972#0"/>
    </vehicle>
    <vehicle id="veh5" type="veh_passenger" depart="12.79" departLane="best">
        <route edges="828678749#0 -695040102#0 695040105#3 118573606#3 118573606#4 118573606#6 118573606#8 118573606#9 118573606#10 118573606#12 372467078#0 372467078#1"/>
    </vehicle>
    <vehicle id="veh6" type="veh_passenger" depart="15.35" departLane="best" departSpeed="max">
        <route edges="-696756023 -295386152#7 -295386152#6 -295386152#4 -295386152#3 -295386152#2 -295386152#1 -118575975#6 -828678745#1 -828678745#0"/>
    </vehicle>
    <vehicle id="veh7" type="veh_passenger" depart="17.91" departLane="best" departSpeed="max">
        <route edges="695510006 295128790#1 295128790#2 295128790#5 295128790#6 295128790#7 295128790#8 295128790#9 295128790#10 693885803#0 693885803#2"/>
    </vehicle>
    <vehicle id="veh8" type="veh_passenger" depart="20.47" departLane="best" departSpeed="max">
        <route edges="302751284 694829084#1 E0 693416739#0 693416739#0.11 693416739#1"/>
    </vehicle>
    <vehicle id="veh9" type="veh_passenger" depart="23.02" departLane="best">
        <route edges="695040105#2 695040102#0 828678749#1 698936203#3 295128790#5 295128790#6 295128790#7 295128790#8 295128790#9 295128790#10 693885803#0 693885803#2 693885803#3 693885803#5 693885803#6"/>
    </vehicle>
    <vehicle id="veh12" type="veh_passenger" depart="30.70" departLane="best">
        <route edges="-118575975#0 118575972#1 689583179#1 689583179#2 689583179#4 689583179#5 1096471623#0 695511482#4 35950897#2"/>
    </vehicle>
    <vehicle id="veh13" type="veh_passenger" depart="33.26" departLane="best">
        <route edges="695040102#0 828678749#1 698936203#3 295128790#5 295128790#6 295128790#7 295128790#8 295128790#9"/>
    </vehicle>
    <vehicle id="veh14" type="veh_passenger" depart="35.81" departLane="best">
        <route edges="693885802#2 693885802#3 695030266 1279915895#1 408161670#0"/>
    </vehicle>
    <vehicle id="veh15" type="veh_passenger" depart="38.37" departLane="best" departSpeed="max">
        <route edges="302751284 694829084#1 E0 695025562#1 695025559 693885802#0 693885802#1 693885802#2 693885802#3 695030266 295128790#5 295128790#6"/>
    </vehicle>
    <vehicle id="veh16" type="veh_passenger" depart="40.93" departLane="best" departSpeed="max">
        <route edges="-828678747 698936203#1 698936203#2 698936203#3 1279915895#1 408161670#0 408161670#1 408161670#2 408161670#3 408161670#4 408161670#5 408161670#6 408161670#8 408161670#9 408161670#10"/>
    </vehicle>
    <vehicle id="veh18" type="veh_passenger" depart="46.05" departLane="best" departSpeed="max">
        <route edges="695510006 295128790#1 295128790#2 295128790#5 295128790#6 295128790#7 295128790#8 295128790#9 295128790#10 1096471623#0 695511482#4 35950897#2 35950897#3"/>
    </vehicle>
    <vehicle id="veh21" type="veh_passenger" depart="53.72" departLane="best" departSpeed="max">
        <route edges="689583179#0 689583179#1 689583179#2 689583179#4 302739240#0 302739240#1 302739240#2 302739240#3 693885802#2 693885802#3 295386152#0 295386152#1 295386152#2 295386152#3 295386152#4 295386152#6 295386152#7 295386152#8"/>
    </vehicle>
    <vehicle id="veh22" type="veh_passenger" depart="56.28" departLane="best">
        <route edges="695025562#1 695025559 693885802#0 693885802#1 693885802#2 693885802#3 695030266 1279915895#1 408161670#0 408161670#1 408161670#2 408161670#3"/>
    </vehicle>
    <vehicle id="veh23" type="veh_passenger" depart="58.84" departLane="best" departSpeed="max">
        <route edges="-404718839 689583179#2 689583179#4 302739240#0 302739240#1 302739240#2 302739240#3 693885802#2 693885802#3 695030266 1279915895#1 408161670#0 408161670#1 408161670#2 408161670#3 408161670#4 408161670#5 408161670#6 408161670#8 408161670#9 408161670#10"/>
    </vehicle>
    <vehicle id="veh25" type="veh_passenger" depart="63.96" departLane="best">
        <route edges="295128790#2 295128790#5 295128790#6 295128790#7 295128790#8 295128790#9 295128790#10 693885804#1"/>
    </vehicle>
    <vehicle id="veh26" type="veh_passenger" depart="66.51" departLane="best" departSpeed="max">
        <route edges="-828678742 118575975#1 118575975#2 118575975#3 118575975#4 118575975#5 118575975#6 295386152#1 295386152#2 295386152#3 698936203#2 698936203#3 1279915895#1 408161670#0 408161670#1 408161670#2 408161670#3 408161670#4 408161670#5"/>
    </vehicle>
    <vehicle id="veh27" type="veh_passenger" depart="69.07" departLane="best">
        <route edges="118575972#1 689583179#1 689583179#2 689583179#4 689583179#5 1096471623#0 695511482#4 35950897#2 35950897#3"/>
    </vehicle>
    <vehicle id="veh30" type="veh_passenger" depart="76.75" departLane="best" departSpeed="max">
        <route edges="-696756023 -295386152#7 -295386152#6 -295386152#4 -295386152#3 -295386152#2 -295386152#1 -118575975#6 -118575975#5 -118575975#4 -118575975#3 -118575975#2 -118575975#1 -118575975#0 118575972#1 689583179#1 689583179#2 689583179#4 689583179#5"/>
    </vehicle>
    <vehicle id="veh31" type="veh_passenger" depart="79.30" departLane="best" departSpeed="max">
        <route edges="-695027208 302739240#3 693885802#2 693885802#3 695030266 695040105#0 695040105#1 695040105#2 695040105#3"/>
    </vehicle>
    <vehicle id="veh32" type="veh_passenger" depart="81.86" departLane="best">
        <route edges="694830397 694830397.22 695025562#1 695025559 693885802#0 693885802#1 693885802#2 693885802#3 695030266 695040105#0 695040105#1 695040105#2 695040105#3 118573606#3 118573606#4 118573606#6 118573606#8 118573606#9 118573606#10"/>
    </vehicle>
    <vehicle id="veh35" type="veh_passenger" depart="89.54" departLane="best" departSpeed="max">
        <route edges="689583179#0 689583179#1 689583179#2 689583179#4 302739240#0 302739240#1 302739240#2 302739240#3 693885802#2 693885802#3 695030266"/>
    </vehicle>
    <vehicle id="veh39" type="veh_passenger" depart="99.77" departLane="best" departSpeed="max">
        <route edges="118575972#0 118575975#0 118575975#1 118575975#2 118575975#3 118575975#4 118575975#5 118575975#6 295386152#1 295386152#2 295386152#3 698936203#2 698936203#3 695040105#0 695040105#1 695040105#2 695040105#3 118573606#3"/>
    </vehicle>
    <vehicle id="veh40" type="veh_passenger" depart="102.33" departLane="best">
        <route edges="-828678741#0 118575975#3 118575975#4 118575975#5 118575975#6 295386152#1 295386152#2 295386152#3 698936203#2 698936203#3 1279915895#1 408161670#0 408161670#1 408161670#2 408161670#3 408161670#4"/>
    </vehicle>
    <vehicle id="veh42" type="veh_passenger" depart="107.44" departLane="best">
        <route edges="118573606#0 118573606#1 295128790#1 295128790#2 1279915895#1 408161670#0 408161670#1 408161670#2 408161670#3 408161670#4 408161670#5 408161670#6 408161670#8"/>
    </vehicle>
    <vehicle id="veh45" type="veh_passenger" depart="115.12" departLane="best" departSpeed="max">
        <route edges="689583179#0 689583179#1 689583179#2 689583179#4 302739240#0 302739240#1 302739240#2 302739240#3 693885802#2 693885802#3 295386152#0 295386152#1 295386152#2 295386152#3 295386152#4 295386152#6"/>
    </vehicle>
    <vehicle id="veh46" type="veh_passenger" depart="117.68" departLane="best">
        <route edges="E0 695025562#1 695025559 693885802#0 693885802#1 693885802#2 693885802#3 295386152#0 295386152#1 295386152#2 828678746"/>
    </vehicle>
    <vehicle id="veh48" type="veh_passenger" depart="122.79" departLane="best" departSpeed="max">
        <route edges="302751284 694829084#1 E0 695025562#1 695025559 693885802#0 693885802#1 693885802#2 693885802#3 295386152#0 -118575975#6 -118575975#5 -118575975#4 -118575975#3 -118575975#2 -118575975#1 -118575975#0 118575972#1 689583179#1 689583179#2 689583179#4 E2"/>
    </vehicle>
    <vehicle id="veh50" type="veh_passenger" depart="127.91" departLane="best">
        <route edges="828678749#0 828678749#1 698936203#3 295128790#5 295128790#6 295128790#7 295128790#8 295128790#9 295128790#10 693885804#1 E4"/>
    </vehicle>
    <vehicle id="veh51" type="veh_passenger" depart="130.47" departLane="best" departSpeed="max">
        <route edges="-828678747 698936203#1 698936203#2 698936203#3 295128790#5 295128790#6 295128790#7 295128790#8 295128790#9 295128790#10 1096471623#0 695511482#4 35950897#2 35950897#3"/>
    </vehicle>
    <vehicle id="veh52" type="veh_passenger" depart="133.03" departLane="best" departSpeed="max">
        <route edges="689583179#0 689583179#1 689583179#2 689583179#4 302739240#0 302739240#1 302739240#2 302739240#3 693885802#2 693885802#3 695030266 695040105#0 695040105#1"/>
    </vehicle>
    <vehicle id="veh54" type="veh_passenger" depart="138.14" departLane="best">
        <route edges="695040102#0 828678749#1 698936203#3 295128790#5 295128790#6 295128790#7 295128790#8 295128790#9 295128790#10"/>
    </vehicle>
    <vehicle id="veh57" type="veh_passenger" depart="145.82" departLane="best">
        <route edges="118575975#5 118575975#6 295386152#1 295386152#2 295386152#3 698936203#2 698936203#3 1279915895#1 408161670#0 408161670#1 408161670#2 408161670#3 408161670#4 408161670#5 408161670#6 408161670#8 408161670#9 408161670#10 408161670#11 408161670#12"/>
    </vehicle>
    <vehicle id="veh58" type="veh_passenger" depart="148.38" departLane="best" departSpeed="max">
        <route edges="-695027208 302739240#3 693885802#2 693885802#3 695030266 1279915895#1 408161670#0 408161670#1 408161670#2 408161670#3 408161670#4 408161670#5 408161670#6 408161670#8 408161670#9"/>
    </vehicle>
    <vehicle id="veh60" type="veh_passenger" depart="153.49" departLane="best" departSpeed="max">
        <route edges="302751284 694829084#1 E0 695025562#1 695025559 693885802#0 693885802#1 693885802#2 693885802#3 295386152#0 -118575975#6 -118575975#5 -118575975#4"/>
    </vehicle>
    <vehicle id="veh63" type="veh_passenger" depart="161.17" departLane="best">
        <route edges="698936203#3 295128790#5 295128790#6 295128790#7 295128790#8 295128790#9 295128790#10 1096471623#0 695511482#4 35950897#2 35950897#3"/>
    </vehicle>
    <vehicle id="veh65" type="veh_passenger" depart="166.28" departLane="best" departSpeed="max">
        <route edges="-828678743 -118575975#3 -118575975#2 -118575975#1 -118575975#0 118575972#1 689583179#1 689583179#2 689583179#4 689583179#5 1096471623#0"/>
    </vehicle>
    <vehicle id="veh66" type="veh_passenger" depart="168.84" departLane="best">
        <route edges="295128790#2 295128790#5 295128790#6 295128790#7 295128790#8 295128790#9 295128790#10 693885803#0 693885803#2 693885803#3"/>
    </vehicle>
    <vehicle id="veh67" type="veh_passenger" depart="171.40" departLane="best">
        <route edges="694829084#1 E0 695025562#1 695025559 693885802#0 693885802#1 693885802#2 693885802#3 695030266 295128790#5"/>
    </vehicle>
    <vehicle id="veh68" type="veh_passenger" depart="173.96" departLane="best">
        <route edges="693885802#2 693885802#3 295386152#0 295386152#1 295386152#2 295386152#3 295386152#4 295386152#6 295386152#7 295386152#8"/>
    </vehicle>
    <vehicle id="veh72" type="veh_passenger" depart="184.19" departLane="best">
        <route edges="-118575975#0 118575972#1 689583179#1 689583179#2 689583179#4 689583179#5 1096471623#0 695511482#4"/>
    </vehicle>
    <vehicle id="veh73" type="veh_passenger" depart="186.75" departLane="best">
        <route edges="693885802#2 693885802#3 295386152#0 295386152#1 295386152#2 295386152#3 295386152#4 295386152#6 295386152#7 295386152#8"/>
    </vehicle>
    <vehicle id="veh75" type="veh_passenger" depart="191.87" departLane="best" departSpeed="max">
        <route edges="698936203#0 698936203#1 698936203#2 698936203#3 295128790#5 295128790#6 295128790#7 295128790#8 295128790#9 295128790#10 693885804#1 693885804#1.60 693416739#0 693416739#0.11 693416739#1"/>
    </vehicle>
    <vehicle id="veh77" type="veh_passenger" depart="196.98" departLane="best" departSpeed="max">
        <route edges="-828678746 295386152#3 698936203#2 698936203#3 695040105#0 695040105#1 695040105#2 695040105#3 118573606#3 118573606#4 118573606#6 118573606#8 118573606#9 118573606#10"/>
    </vehicle>
    <vehicle id="veh80" type="veh_passenger" depart="204.66" departLane="best">
        <route edges="695040102#1 -295386152#4 -295386152#3 -295386152#2 -295386152#1 -118575975#6 -118575975#5 -118575975#4 -118575975#3 828678741#0 828678741#1"/>
    </vehicle>
    <vehicle id="veh81" type="veh_passenger" depart="207.21" departLane="best">
        <route edges="695040102#1 -295386152#4 -295386152#3 -295386152#2 -295386152#1 -118575975#6 -118575975#5 -118575975#4 -118575975#3 -118575975#2 -118575975#1 -118575975#0 118575972#1 689583179#1 689583179#2 689583179#4 302739240#0"/>
    </vehicle>
    <vehicle id="veh82" type="veh_passenger" depart="209.77" departLane="best">
        <route edges="695025562#1 695025559 693885802#0 693885802#1 693885802#2 693885802#3 295386152#0 -118575975#6 -828678745#1"/>
    </vehicle>
    <vehicle id="veh83" type="veh_passenger" depart="212.33" departLane="best" departSpeed="max">
        <route edges="695510006 295128790#1 295128790#2 295128790#5 295128790#6 295128790#7 295128790#8 295128790#9 295128790#10 693885804#1 693885804#1.60 779462187#1.4 779462187#1.9"/>
    </vehicle>
    <vehicle id="veh84" type="veh_passenger" depart="214.89" departLane="best" departSpeed="max">
        <route edges="118575972#0 118575972#1 689583179#1 689583179#2 689583179#4 689583179#5 693885804#1 693885804#1.60 779462187#1.4 779462187#1.9"/>
    </vehicle>
    <vehicle id="veh86" type="veh_passenger" depart="220.01" departLane="best">
        <route edges="693885802#3 695030266 1279915895#1 408161670#0 408161670#1 408161670#2 408161670#3 408161670#4 408161670#5 408161670#6 408161670#8 408161670#9 408161670#10 408161670#11 408161670#12"/>
    </vehicle>
    <vehicle id="veh87" type="veh_passenger" depart="222.56" departLane="best">
        <route edges="828678744 -118575975#4 -118575975#3 -118575975#2 -118575975#1 -118575975#0 118575972#1 689583179#1 689583179#2 689583179#4 689583179#5 1096471623#0"/>
    </vehicle>
    <vehicle id="veh88" type="veh_passenger" depart="225.12" departLane="best">
        <route edges="E0 695025562#1 695025559 693885802#0 693885802#1 693885802#2 693885802#3 295386152#0 295386152#1 295386152#2 295386152#3 295386152#4 295386152#6 295386152#7 295386152#8"/>
    </vehicle>
    <vehicle id="veh89" type="veh_passenger" depart="227.68" departLane="best" departSpeed="max">
        <route edges="-828678741#1 -828678741#0 118575975#3 118575975#4 118575975#5 118575975#6 295386152#1 295386152#2 295386152#3 698936203#2 698936203#3 1279915895#1 408161670#0 408161670#1 408161670#2 408161670#3 408161670#4 408161670#5"/>
    </vehicle>
    <vehicle id="veh90" type="veh_passenger" depart="230.24" departLane="best" departSpeed="max">
        <route edges="694830396 694830397 694830397.22 695025562#1 1096471623#0 695511482#4 35950897#2 35950897#3"/>
    </vehicle>
    <vehicle id="veh92" type="veh_passenger" depart="235.35" departLane="best">
        <route edges="-118575972#2 118575975#0 118575975#1 118575975#2 118575975#3 118575975#4 118575975#5 118575975#6 295386152#1 295386152#2 828678746"/>
    </vehicle>
    <vehicle id="veh93" type="veh_passenger" depart="237.91" departLane="best" departSpeed="max">
        <route edges="302751284 694829084#1 E0 695025562#1 695025559 693885802#0 693885802#1 693885802#2 693885802#3 295386152#0 -118575975#6 -118575975#5 -118575975#4 -118575975#3 -118575975#2 -641423230"/>
    </vehicle>
    <vehicle id="veh94" type="veh_passenger" depart="240.47" departLane="best">
        <route edges="295386152#1 295386152#2 295386152#3 698936203#2 698936203#3 295128790#5 295128790#6 295128790#7 295128790#8 295128790#9 295128790#10 693885804#1 693885804#1.60 779462187#1.4 779462187#1.9"/>
    </vehicle>
    <vehicle id="veh97" type="veh_passenger" depart="248.15" departLane="best" departSpeed="max">
        <route edges="-828678743 118575975#4 118575975#5 118575975#6 295386152#1 295386152#2 295386152#3 698936203#2 698936203#3 1279915895#1 408161670#0 408161670#1 408161670#2 408161670#3"/>
    </vehicle>
    <vehicle id="veh99" type="veh_passenger" depart="253.26" departLane="best" departSpeed="max">
        <route edges="698936203#0 698936203#1 698936203#2 698936203#3 295128790#5 295128790#6 295128790#7 295128790#8 295128790#9 295128790#10 693885803#0 693885803#2 693885803#3 693885803#5 693885803#6"/>
    </vehicle>
    <vehicle id="veh100" type="veh_passenger" depart="255.82" departLane="best">
        <route edges="295128790#8 295128790#9 295128790#10 693885804#1 693885804#1.60 693416739#0 693416739#0.11 693416739#1"/>
    </vehicle>
    <vehicle id="veh101" type="veh_passenger" depart="258.38" departLane="best">
        <route edges="118575972#1 689583179#1 689583179#2 689583179#4 689583179#5 1096471623#0 695511482#4 35950897#2"/>
    </vehicle>
    <vehicle id="veh105" type="veh_passenger" depart="268.61" departLane="best">
        <route edges="695025562#1 695025559 693885802#0 693885802#1 693885802#2 693885802#3 695030266 1279915895#1"/>
    </vehicle>
    <vehicle id="veh106" type="veh_passenger" depart="271.17" departLane="best" departSpeed="max">
        <route edges="-696756023 -295386152#7 -295386152#6 -295386152#4 698936203#2 698936203#3 295128790#5 295128790#6 295128790#7 295128790#8 295128790#9 295128790#10 693885804#1 693885804#1.60 693416739#0 693416739#0.11"/>
    </vehicle>
    <vehicle id="veh107" type="veh_passenger" depart="273.73" departLane="best">
        <route edges="693885802#2 693885802#3 695030266 695040105#0 695040105#1 695040105#2 695040105#3 118573606#3 118573606#4 118573606#6 118573606#8 118573606#9 118573606#10 118573606#12 372467078#0"/>
    </vehicle>
    <vehicle id="veh112" type="veh_passenger" depart="286.52" departLane="best" departSpeed="max">
        <route edges="641397122 694829084#1 E0 695025562#1 695025559 693885802#0 693885802#1 693885802#2 693885802#3 295386152#0 295386152#1 295386152#2 295386152#3"/>
    </vehicle>
    <vehicle id="veh114" type="veh_passenger" depart="291.64" departLane="best" departSpeed="max">
        <route edges="-828678741#1 -828678741#0 118575975#3 118575975#4 118575975#5 118575975#6 295386152#1 295386152#2 295386152#3 698936203#2 698936203#3 1279915895#1 408161670#0 408161670#1 408161670#2 408161670#3 408161670#4"/>
    </vehicle>
    <vehicle id="veh115" type="veh_passenger" depart="294.19" departLane="best">
        <route edges="295128790#1 295128790#2 295128790#5 295128790#6 295128790#7 295128790#8 295128790#9 295128790#10 693885804#1 693885804#1.60 779462187#1.4 779462187#1.9"/>
    </vehicle>
    <vehicle id="veh116" type="veh_passenger" depart="296.75" departLane="best">
        <route edges="689583179#5 695025559 693885802#0 693885802#1 693885802#2 693885802#3 295386152#0 295386152#1 828678748"/>
    </vehicle>
    <vehicle id="veh117" type="veh_passenger" depart="299.31" departLane="best" departSpeed="max">
        <route edges="698936203#0 698936203#1 698936203#2 698936203#3 295128790#5 295128790#6 295128790#7 295128790#8 295128790#9 295128790#10 693885803#0 693885803#2 693885803#3 693885803#5"/>
    </vehicle>
    <vehicle id="veh118" type="veh_passenger" depart="301.87" departLane="best">
        <route edges="695040105#2 695040102#0 828678749#1 698936203#3 295128790#5 295128790#6 295128790#7 295128790#8 295128790#9 295128790#10 693885804#1 693885804#1.60 693416739#0 693416739#0.11 693416739#1"/>
    </vehicle>
    <vehicle id="veh121" type="veh_passenger" depart="309.54" departLane="best">
        <route edges="295128790#2 295128790#5 295128790#6 295128790#7 295128790#8 295128790#9 295128790#10 1096471623#0 695511482#4 35950897#2 35950897#3"/>
    </vehicle>
    <vehicle id="veh122" type="veh_passenger" depart="312.10" departLane="best" departSpeed="max">
        <route edges="689583179#0 689583179#1 689583179#2 689583179#4 302739240#0 302739240#1 302739240#2 302739240#3 693885802#2 693885802#3 695030266 695040105#0 695040105#1 695040105#2 695040105#3 118573606#3 118573606#4 118573606#6"/>
    </vehicle>
    <vehicle id="veh127" type="veh_passenger" depart="324.89" departLane="best" departSpeed="max">
        <route edges="302751284 694829084#1 E0 695025562#1 695025559 693885802#0 693885802#1 693885802#2 693885802#3 295386152#0 -118575975#6 -118575975#5 -118575975#4 -118575975#3 -118575975#2 -118575975#1 -118575975#0 -118575972#0"/>
    </vehicle>
    <vehicle id="veh128" type="veh_passenger" depart="327.45" departLane="best" departSpeed="max">
        <route edges="302751284 694829084#1 E0 695025562#1 695025559 693885802#0 693885802#1 693885802#2 693885802#3 695030266 695040105#0 695040105#1 695040105#2"/>
    </vehicle>
    <vehicle id="veh130" type="veh_passenger" depart="332.57" departLane="best" departSpeed="max">
        <route edges="689583179#0 689583179#1 689583179#2 689583179#4 689583179#5 693885803#0 693885803#2"/>
    </vehicle>
    <vehicle id="veh133" type="veh_passenger" depart="340.24" departLane="best">
        <route edges="295386152#2 295386152#3 698936203#2 698936203#3 295128790#5 295128790#6 295128790#7 295128790#8 295128790#9 295128790#10 693885804#1"/>
    </vehicle>
    <vehicle id="veh134" type="veh_passenger" depart="342.80" departLane="best">
        <route edges="-828678744 828678745#1 118575975#6 295386152#1 295386152#2 295386152#3 698936203#2 698936203#3 1279915895#1 408161670#0 408161670#1 408161670#2 408161670#3 408161670#4 408161670#5 408161670#6 408161670#8 408161670#9"/>
    </vehicle>
    <vehicle id="veh135" type="veh_passenger" depart="345.36" departLane="best" departSpeed="max">
        <route edges="-295386152#8 -295386152#7 -295386152#6 -295386152#4 698936203#2 698936203#3 1279915895#1 408161670#0 408161670#1 408161670#2 408161670#3 408161670#4 408161670#5 408161670#6 408161670#8 408161670#9 408161670#10"/>
    </vehicle>
    <vehicle id="veh136" type="veh_passenger" depart="347.92" departLane="best" departSpeed="max">
        <route edges="118575972#0 118575972#1 689583179#1 689583179#2 689583179#4 689583179#5 1096471623#0 695511482#4 35950897#2 35950897#3"/>
    </vehicle>
    <vehicle id="veh137" type="veh_passenger" depart="350.47" departLane="best">
        <route edges="694830397 694830397.22 695025562#1 695025559 693885802#0 693885802#1 693885802#2 693885802#3 695030266 1279915895#1 408161670#0 408161670#1 408161670#2 408161670#3 408161670#4 408161670#5 408161670#6 408161670#8 408161670#9 408161670#10"/>
    </vehicle>
    <vehicle id="veh139" type="veh_passenger" depart="355.59" departLane="best">
        <route edges="-118575975#6 -118575975#5 -118575975#4 -118575975#3 -118575975#2 -118575975#1 -118575975#0 118575972#1 689583179#1 689583179#2 689583179#4 E2 693416739#0.11 693416739#1"/>
    </vehicle>
    <vehicle id="veh144" type="veh_passenger" depart="368.38" departLane="best" departSpeed="max">
        <route edges="-828678748 295386152#2 295386152#3 698936203#2 698936203#3 295128790#5 295128790#6 295128790#7 295128790#8 295128790#9 295128790#10 693885803#0 693885803#2 693885803#3"/>
    </vehicle>
    <vehicle id="veh146" type="veh_passenger" depart="373.50" departLane="best">
        <route edges="828678749#0 828678749#1 698936203#3 1279915895#1 408161670#0 408161670#1 408161670#2 408161670#3 408161670#4 408161670#5 408161670#6 408161670#8 408161670#9 408161670#10 408161670#11 408161670#12"/>
    </vehicle>
    <vehicle id="veh147" type="veh_passenger" depart="376.06" departLane="best">
        <route edges="694829084#1 E0 695025562#1 695025559 693885802#0 693885802#1 693885802#2 693885802#3 295386152#0 -118575975#6 -118575975#5 -118575975#4 -118575975#3 -118575975#2 -641423230"/>
    </vehicle>
    <vehicle id="veh148" type="veh_passenger" depart="378.61" departLane="best" departSpeed="max">
        <route edges="-828678741#1 -828678741#0 -118575975#2 -118575975#1 -118575975#0 118575972#1 689583179#1 689583179#2 689583179#4 689583179#5 1096471623#0 695511482#4"/>
    </vehicle>
    <vehicle id="veh149" type="veh_passenger" depart="381.17" departLane="best" departSpeed="max">
        <route edges="695510006 295128790#1 295128790#2 295128790#5 295128790#6 295128790#7 295128790#8 295128790#9 295128790#10 693885803#0 693885803#2"/>
    </vehicle>
    <vehicle id="veh150" type="veh_passenger" depart="383.73" departLane="best">
        <route edges="695025559 693885802#0 693885802#1 693885802#2 693885802#3 695030266 695040105#0 695040105#1 695040105#2 695040105#3 118573606#3 118573606#4 118573606#6 118573606#8 118573606#9 118573606#10 118573606#12 372467078#0 372467078#1"/>
    </vehicle>
    <vehicle id="veh151" type="veh_passenger" depart="386.29" departLane="best" departSpeed="max">
        <route edges="641397122 694829084#1 E0 695025562#1 695025559 693885802#0 693885802#1 693885802#2 693885802#3 695030266 695040105#0 695040105#1 695040105#2 695040105#3 118573606#3 118573606#4 118573606#6 118573606#8 118573606#9 118573606#10 118573606#12 372467078#0 372467078#1"/>
    </vehicle>
    <vehicle id="veh152" type="veh_passenger" depart="388.85" departLane="best" departSpeed="max">
        <route edges="695510006 295128790#1 295128790#2 295128790#5 295128790#6 295128790#7 295128790#8 295128790#9 295128790#10 693885804#1 693885804#1.60 779462187#1.4 779462187#1.9"/>
    </vehicle>
    <vehicle id="veh154" type="veh_passenger" depart="393.96" departLane="best">
        <route edges="295128790#2 295128790#5 295128790#6 295128790#7 295128790#8 295128790#9 295128790#10 693885804#1 693885804#1.60 779462187#1.4"/>
    </vehicle>
    <vehicle id="veh155" type="veh_passenger" depart="396.52" departLane="best">
        <route edges="295128790#2 295128790#5 295128790#6 295128790#7 295128790#8 295128790#9 295128790#10 693885804#1 693885804#1.60 779462187#1.4 779462187#1.9"/>
    </vehicle>
    <vehicle id="veh158" type="veh_passenger" depart="404.20" departLane="best" departSpeed="max">
        <route edges="302751284 694829084#1 E0 695025562#1 695025559 693885802#0 693885802#1 693885802#2 693885802#3 295386152#0 -118575975#6 -118575975#5"/>
    </vehicle>
    <vehicle id="veh159" type="veh_passenger" depart="406.75" departLane="best" departSpeed="max">
        <route edges="695510006 295128790#1 295128790#2 295128790#5 295128790#6 295128790#7 295128790#8 295128790#9 295128790#10"/>
    </vehicle>
    <vehicle id="veh160" type="veh_passenger" depart="409.31" departLane="best" departSpeed="max">
        <route edges="-696756023 -295386152#7 -295386152#6 -295386152#4 -295386152#3 -295386152#2 -295386152#1 -118575975#6 -118575975#5 -118575975#4 -118575975#3 828678741#0 828678740 302739240#2 695027208"/>
    </vehicle>
    <vehicle id="veh162" type="veh_passenger" depart="414.43" departLane="best" departSpeed="max">
        <route edges="-696756023 -295386152#7 -295386152#6 -295386152#4 698936203#2 698936203#3 295128790#5 295128790#6 295128790#7 295128790#8"/>
    </vehicle>
    <vehicle id="veh163" type="veh_passenger" depart="416.99" departLane="best">
        <route edges="693885804#1 E4 695511482#4 35950897#2 35950897#3"/>
    </vehicle>