<?xml version="1.0" encoding="UTF-8"?>

<!-- generated on 2025-06-18 00:26:52.521628 by randomTrips.py v1_22_0+0002-63e50f52594
<configuration>
    <net-file value="osm.net.xml.gz"/>
    <output-trip-file value="osm.bicycle.trips.xml"/>
    <route-file value="osm.bicycle.rou.xml"/>
    <prefix value="bike"/>
    <trip-attributes value="departLane=&quot;best&quot;"/>
    <fringe-start-attributes value="departSpeed=&quot;max&quot;"/>
    <vehicle-class value="bicycle"/>
    <fringe-factor value="2"/>
    <vclass value="bicycle"/>
    <via-edge-types value="highway.motorway,highway.motorway_link,highway.trunk_link,highway.primary_link,highway.secondary_link,highway.tertiary_link"/>
    <max-distance value="8000.0"/>
    <remove-loops value="True"/>
    <validate value="True"/>
    <insertion-density value="60.0"/>
</configuration>
-->

<!-- generated on 2025-06-18 00:26:52 by Eclipse SUMO duarouter Version 1.22.0
<duarouterConfiguration xmlns:xsi="http://www.w3.org/2001/XMLSchema-instance" xsi:noNamespaceSchemaLocation="http://sumo.dlr.de/xsd/duarouterConfiguration.xsd">

    <input>
        <net-file value="osm.net.xml.gz"/>
        <route-files value="osm.bicycle.trips.xml"/>
    </input>

    <output>
        <output-file value="osm.bicycle.trips.xml.tmp"/>
        <alternatives-output value="NUL"/>
        <write-trips value="true"/>
    </output>

    <processing>
        <remove-loops value="true"/>
    </processing>

    <time>
        <begin value="0.0"/>
        <end value="3600.0"/>
    </time>

    <report>
        <no-warnings value="true"/>
        <ignore-errors value="true"/>
        <no-step-log value="true"/>
    </report>

</duarouterConfiguration>
-->

<routes xmlns:xsi="http://www.w3.org/2001/XMLSchema-instance" xsi:noNamespaceSchemaLocation="http://sumo.dlr.de/xsd/routes_file.xsd">
    <vType id="bike_bicycle" vClass="bicycle"/>
    <trip id="bike3" type="bike_bicycle" depart="11.27" departLane="best" departSpeed="max" from="698936203#0" to="-372467078#0"/>
    <trip id="bike4" type="bike_bicycle" depart="15.02" departLane="best" from="118573606#0" to="-118575975#5"/>
    <trip id="bike5" type="bike_bicycle" depart="18.78" departLane="best" from="695040107#2" to="408161670#1"/>
    <trip id="bike6" type="bike_bicycle" depart="22.54" departLane="best" from="-118575975#6" to="695673446#0"/>
    <trip id="bike7" type="bike_bicycle" depart="26.29" departLane="best" from="408161670#4" to="408161670#9"/>
    <trip id="bike10" type="bike_bicycle" depart="37.56" departLane="best" from="695030266" to="695027207"/>
    <trip id="bike11" type="bike_bicycle" depart="41.32" departLane="best" departSpeed="max" from="-828678748" to="-695040102#0"/>
    <trip id="bike12" type="bike_bicycle" depart="45.07" departLane="best" from="828678899" to="1192334146#0"/>
    <trip id="bike13" type="bike_bicycle" depart="48.83" departLane="best" from="-372468201#1" to="-372468201#0"/>
    <trip id="bike14" type="bike_bicycle" depart="52.58" departLane="best" from="695040107#2" to="693416739#0.11"/>
    <trip id="bike15" type="bike_bicycle" depart="56.34" departLane="best" from="695030266" to="695040105#1"/>
    <trip id="bike16" type="bike_bicycle" depart="60.10" departLane="best" from="295386152#2" to="931369479#1"/>
    <trip id="bike19" type="bike_bicycle" depart="71.37" departLane="best" departSpeed="max" from="695510006" to="642035208#1"/>
    <trip id="bike20" type="bike_bicycle" depart="75.12" departLane="best" from="689583179#1" to="-1255581684"/>
    <trip id="bike22" type="bike_bicycle" depart="82.63" departLane="best" from="-295386175#1" to="-828678850#1"/>
    <trip id="bike24" type="bike_bicycle" depart="90.15" departLane="best" from="408161670#12" to="295128790#7"/>
    <trip id="bike26" type="bike_bicycle" depart="97.66" departLane="best" departSpeed="max" from="-695691453" to="828678895"/>
    <trip id="bike27" type="bike_bicycle" depart="101.41" departLane="best" from="408161670#3" to="693416739#1"/>
    <trip id="bike32" type="bike_bicycle" depart="120.19" departLane="best" from="695040107#1" to="695691448"/>
    <trip id="bike34" type="bike_bicycle" depart="127.71" departLane="best" from="-118575975#5" to="1096471623#0"/>
    <trip id="bike35" type="bike_bicycle" depart="131.46" departLane="best" departSpeed="max" from="-695040103" to="828678896"/>
    <trip id="bike36" type="bike_bicycle" depart="135.22" departLane="best" departSpeed="max" from="695512891" to="-118575975#1"/>
    <trip id="bike38" type="bike_bicycle" depart="142.73" departLane="best" from="-828678741#0" to="-372468201#1"/>
    <trip id="bike39" type="bike_bicycle" depart="146.49" departLane="best" departSpeed="max" from="-695691452" to="-828678900"/>
    <trip id="bike46" type="bike_bicycle" depart="172.78" departLane="best" from="694830397" to="302739240#1"/>
    <trip id="bike47" type="bike_bicycle" depart="176.54" departLane="best" from="-295386152#7" to="-295386152#3"/>
    <trip id="bike50" type="bike_bicycle" depart="187.80" departLane="best" from="118575975#2" to="695040103"/>
    <trip id="bike51" type="bike_bicycle" depart="191.56" departLane="best" from="-642035207#0" to="408161670#5"/>
    <trip id="bike52" type="bike_bicycle" depart="195.32" departLane="best" departSpeed="max" from="-695691453" to="693885803#3"/>
    <trip id="bike53" type="bike_bicycle" depart="199.07" departLane="best" from="-372469388#1" to="35950897#3"/>
    <trip id="bike54" type="bike_bicycle" depart="202.83" departLane="best" departSpeed="max" from="118575972#0" to="-828678898"/>
    <trip id="bike55" type="bike_bicycle" depart="206.58" departLane="best" departSpeed="max" from="695512891" to="-931369479#3"/>
    <trip id="bike56" type="bike_bicycle" depart="210.34" departLane="best" from="295128790#1" to="-695511483"/>
    <trip id="bike57" type="bike_bicycle" depart="214.10" departLane="best" from="-828678741#0" to="828678743"/>
    <trip id="bike58" type="bike_bicycle" depart="217.85" departLane="best" departSpeed="max" from="-828678741#1" to="693885803#2"/>
    <trip id="bike61" type="bike_bicycle" depart="229.12" departLane="best" from="694829084#1" to="408161670#4"/>
    <trip id="bike62" type="bike_bicycle" depart="232.88" departLane="best" from="-118575972#2" to="118575975#4"/>
    <trip id="bike63" type="bike_bicycle" depart="236.63" departLane="best" from="-118575975#4" to="828678850#1"/>
    <trip id="bike65" type="bike_bicycle" depart="244.14" departLane="best" departSpeed="max" from="-828678743" to="295386152#2"/>
    <trip id="bike68" type="bike_bicycle" depart="255.41" departLane="best" departSpeed="max" from="-295386152#8" to="695511482#4"/>
    <trip id="bike70" type="bike_bicycle" depart="262.92" departLane="best" from="-118575975#3" to="641423229"/>
    <trip id="bike73" type="bike_bicycle" depart="274.19" departLane="best" from="295386152#3" to="695040105#1"/>
    <trip id="bike74" type="bike_bicycle" depart="277.95" departLane="best" from="695040102#1" to="-118575975#1"/>
    <trip id="bike76" type="bike_bicycle" depart="285.46" departLane="best" from="118573606#4" to="408161670#12"/>
    <trip id="bike78" type="bike_bicycle" depart="292.97" departLane="best" departSpeed="max" from="-828678748" to="689583179#1"/>
    <trip id="bike80" type="bike_bicycle" depart="300.49" departLane="best" departSpeed="max" from="-295386152#8" to="693885803#0"/>
    <trip id="bike84" type="bike_bicycle" depart="315.51" departLane="best" from="-695040107#0" to="642035207#0"/>
    <trip id="bike85" type="bike_bicycle" depart="319.27" departLane="best" from="828678749#1" to="642035208#0"/>
    <trip id="bike86" type="bike_bicycle" depart="323.02" departLane="best" from="118575975#2" to="695691449"/>
    <trip id="bike87" type="bike_bicycle" depart="326.78" departLane="best" departSpeed="max" from="695033472#2" to="-695668721#0"/>
    <trip id="bike88" type="bike_bicycle" depart="330.53" departLane="best" from="372468201#2" to="35950897#2"/>
    <trip id="bike89" type="bike_bicycle" depart="334.29" departLane="best" from="118573606#1" to="-372469387#1"/>
    <trip id="bike91" type="bike_bicycle" depart="341.80" departLane="best" from="E0" to="-372468201#0"/>
    <trip id="bike92" type="bike_bicycle" depart="345.56" departLane="best" from="931369479#0" to="1192334146#0"/>
    <trip id="bike93" type="bike_bicycle" depart="349.31" departLane="best" departSpeed="max" from="695510006" to="-931369478"/>
    <trip id="bike94" type="bike_bicycle" depart="353.07" departLane="best" departSpeed="max" from="-695027208" to="372467078#1"/>
    <trip id="bike95" type="bike_bicycle" depart="356.83" departLane="best" from="118573606#0" to="118573606#10"/>
    <trip id="bike96" type="bike_bicycle" depart="360.58" departLane="best" departSpeed="max" from="-695691449" to="828678849"/>
    <trip id="bike98" type="bike_bicycle" depart="368.09" departLane="best" from="-295386152#7" to="-118575975#6"/>
    <trip id="bike100" type="bike_bicycle" depart="375.61" departLane="best" from="931369479#0" to="828678850#1"/>
    <trip id="bike101" type="bike_bicycle" depart="379.36" departLane="best" from="-695040107#3" to="-695040107#1"/>
    <trip id="bike102" type="bike_bicycle" depart="383.12" departLane="best" from="-118575975#6" to="-828678745#0"/>
    <trip id="bike105" type="bike_bicycle" depart="394.39" departLane="best" departSpeed="max" from="-695691452" to="695691449"/>
    <trip id="bike106" type="bike_bicycle" depart="398.14" departLane="best" departSpeed="max" from="118575972#0" to="302739240#2"/>
    <trip id="bike109" type="bike_bicycle" depart="409.41" departLane="best" from="-642035207#0" to="118573606#8"/>
    <trip id="bike110" type="bike_bicycle" depart="413.17" departLane="best" from="931369479#0" to="642067357#0"/>
    <trip id="bike111" type="bike_bicycle" depart="416.92" departLane="best" from="295386152#4" to="-695040107#1"/>
    <trip id="bike112" type="bike_bicycle" depart="420.68" departLane="best" from="-295386152#4" to="642067357#0"/>
    <trip id="bike114" type="bike_bicycle" depart="428.19" departLane="best" from="-642035207#1" to="-828678900"/>
    <trip id="bike118" type="bike_bicycle" depart="443.22" departLane="best" departSpeed="max" from="698936203#0" to="-828678900"/>
    <trip id="bike120" type="bike_bicycle" depart="450.73" departLane="best" from="118573606#0" to="642067357#0"/>
    <trip id="bike122" type="bike_bicycle" depart="458.24" departLane="best" departSpeed="max" from="-695040103" to="695040102#1"/>
    <trip id="bike124" type="bike_bicycle" depart="465.75" departLane="best" departSpeed="max" from="641397122" to="118573606#8"/>
    <trip id="bike125" type="bike_bicycle" depart="469.51" departLane="best" from="-828678744" to="695040107#3"/>
    <trip id="bike126" type="bike_bicycle" depart="473.26" departLane="best" departSpeed="max" from="-295386152#8" to="-372468201#1"/>
    <trip id="bike128" type="bike_bicycle" depart="480.78" departLane="best" departSpeed="max" from="-295386152#8" to="-828678745#0"/>
    <trip id="bike129" type="bike_bicycle" depart="484.53" departLane="best" departSpeed="max" from="-695691452" to="828678854#2"/>
    <trip id="bike135" type="bike_bicycle" depart="507.07" departLane="best" from="695040102#0" to="118573606#8"/>
    <trip id="bike136" type="bike_bicycle" depart="510.83" departLane="best" from="408161670#9" to="828678895"/>
    <trip id="bike137" type="bike_bicycle" depart="514.58" departLane="best" departSpeed="max" from="-404718839" to="-372469388#0"/>
    <trip id="bike139" type="bike_bicycle" depart="522.09" departLane="best" departSpeed="max" from="-695691453" to="693416739#0.11"/>
    <trip id="bike141" type="bike_bicycle" depart="529.61" departLane="best" from="408161670#12" to="931369479#3"/>
    <trip id="bike142" type="bike_bicycle" depart="533.36" departLane="best" from="118575975#6" to="828678748"/>
    <trip id="bike143" type="bike_bicycle" depart="537.12" departLane="best" from="-695040107#2" to="-372467078#0"/>
    <trip id="bike144" type="bike_bicycle" depart="540.87" departLane="best" from="118573606#1" to="118573606#1"/>
    <trip id="bike145" type="bike_bicycle" depart="544.63" departLane="best" from="-118575972#2" to="695691448"/>
    <trip id="bike146" type="bike_bicycle" depart="548.39" departLane="best" from="408161670#13" to="931369479#2"/>
    <trip id="bike151" type="bike_bicycle" depart="567.17" departLane="best" from="695040105#3" to="642067357#0"/>
    <trip id="bike154" type="bike_bicycle" depart="578.43" departLane="best" from="694830397.22" to="828678741#1"/>
    <trip id="bike155" type="bike_bicycle" depart="582.19" departLane="best" from="-295386152#4" to="-828678745#0"/>
    <trip id="bike156" type="bike_bicycle" depart="585.95" departLane="best" departSpeed="max" from="-695691449" to="-372468201#1"/>
    <trip id="bike157" type="bike_bicycle" depart="589.70" departLane="best" from="694829084#1" to="-118575975#5"/>
    <trip id="bike159" type="bike_bicycle" depart="597.21" departLane="best" from="-642035207#0" to="828678854#2"/>
    <trip id="bike162" type="bike_bicycle" depart="608.48" departLane="best" from="118575975#5" to="695040105#2"/>
    <trip id="bike163" type="bike_bicycle" depart="612.24" departLane="best" departSpeed="max" from="-828678747" to="828678854#2"/>
    <trip id="bike164" type="bike_bicycle" depart="616.00" departLane="best" from="695025562#1" to="828678742"/>
    <trip id="bike165" type="bike_bicycle" depart="619.75" departLane="best" departSpeed="max" from="695033472#2" to="1096471623#0"/>
    <trip id="bike166" type="bike_bicycle" depart="623.51" departLane="best" departSpeed="max" from="694830396" to="372469387#0"/>
    <trip id="bike167" type="bike_bicycle" depart="627.26" departLane="best" departSpeed="max" from="695512891" to="828678741#1"/>
    <trip id="bike168" type="bike_bicycle" depart="631.02" departLane="best" from="695040107#3" to="695691454#0"/>
    <trip id="bike169" type="bike_bicycle" depart="634.78" departLane="best" from="118575972#1" to="118575972#1"/>
    <trip id="bike170" type="bike_bicycle" depart="638.53" departLane="best" from="694830397.22" to="-828678845"/>
    <trip id="bike171" type="bike_bicycle" depart="642.29" departLane="best" from="-118575975#5" to="-695668721#0"/>
    <trip id="bike172" type="bike_bicycle" depart="646.04" departLane="best" departSpeed="max" from="-828678746" to="828678742"/>
    <trip id="bike173" type="bike_bicycle" depart="649.80" departLane="best" from="931369479#0" to="118573606#10"/>
    <trip id="bike175" type="bike_bicycle" depart="657.31" departLane="best" from="931369479#3" to="408161670#5"/>
    <trip id="bike176" type="bike_bicycle" depart="661.07" departLane="best" from="372469388#0" to="-372469388#0"/>
    <trip id="bike177" type="bike_bicycle" depart="664.82" departLane="best" from="931369479#1" to="-695511483"/>
    <trip id="bike178" type="bike_bicycle" depart="668.58" departLane="best" from="828678900" to="-931369479#3"/>
    <trip id="bike179" type="bike_bicycle" depart="672.34" departLane="best" from="-372469388#0" to="35950897#3"/>
    <trip id="bike180" type="bike_bicycle" depart="676.09" departLane="best" from="693885802#0" to="-118575975#1"/>
    <trip id="bike182" type="bike_bicycle" depart="683.60" departLane="best" from="828678897" to="642035208#1"/>
    <trip id="bike184" type="bike_bicycle" depart="691.12" departLane="best" from="118575972#1" to="828678849"/>
    <trip id="bike185" type="bike_bicycle" depart="694.87" departLane="best" from="295386152#3" to="695040103"/>
    <trip id="bike189" type="bike_bicycle" depart="709.90" departLane="best" departSpeed="max" from="-828678743" to="779462187#1.9"/>
    <trip id="bike191" type="bike_bicycle" depart="717.41" departLane="best" departSpeed="max" from="-828678743" to="295386175#1"/>
    <trip id="bike192" type="bike_bicycle" depart="721.17" departLane="best" from="931369479#0" to="118573606#6"/>
    <trip id="bike193" type="bike_bicycle" depart="724.92" departLane="best" departSpeed="max" from="-372469394" to="302739240#1"/>
    <trip id="bike196" type="bike_bicycle" depart="736.19" departLane="best" departSpeed="max" from="-828678742" to="408161670#9"/>
    <trip id="bike197" type="bike_bicycle" depart="739.95" departLane="best" from="-118575972#2" to="118573606#3"/>
    <trip id="bike198" type="bike_bicycle" depart="743.70" departLane="best" from="118573606#12" to="642067357#0"/>
    <trip id="bike199" type="bike_bicycle" depart="747.46" departLane="best" from="408161670#5" to="-372469387#0"/>
    <trip id="bike201" type="bike_bicycle" depart="754.97" departLane="best" from="118575975#2" to="828678748"/>
    <trip id="bike202" type="bike_bicycle" depart="758.73" departLane="best" from="694830397.22" to="695040107#2"/>
    <trip id="bike204" type="bike_bicycle" depart="766.24" departLane="best" from="408161670#11" to="1192334146#0"/>
    <trip id="bike205" type="bike_bicycle" depart="769.99" departLane="best" from="695040102#0" to="695040107#2"/>
    <trip id="bike206" type="bike_bicycle" depart="773.75" departLane="best" departSpeed="max" from="641397122" to="-828678749#1"/>
    <trip id="bike207" type="bike_bicycle" depart="777.51" departLane="best" from="695040102#0" to="-118575975#3"/>
    <trip id="bike208" type="bike_bicycle" depart="781.26" departLane="best" departSpeed="max" from="-695691449" to="-372469388#1"/>
    <trip id="bike210" type="bike_bicycle" depart="788.77" departLane="best" from="931369479#3" to="693885803#0"/>
    <trip id="bike211" type="bike_bicycle" depart="792.53" departLane="best" departSpeed="max" from="-695027208" to="695027207"/>
    <trip id="bike212" type="bike_bicycle" depart="796.29" departLane="best" departSpeed="max" from="1199455963" to="-828678898"/>
    <trip id="bike214" type="bike_bicycle" depart="803.80" departLane="best" from="693885803#2" to="695673446#0"/>
    <trip id="bike216" type="bike_bicycle" depart="811.31" departLane="best" departSpeed="max" from="-695027206" to="695691450"/>
    <trip id="bike219" type="bike_bicycle" depart="822.58" departLane="best" departSpeed="max" from="118575972#0" to="695691452"/>
    <trip id="bike220" type="bike_bicycle" depart="826.34" departLane="best" departSpeed="max" from="641397122" to="E1"/>
    <trip id="bike222" type="bike_bicycle" depart="833.85" departLane="best" departSpeed="max" from="698936203#0" to="693416739#1"/>
    <trip id="bike224" type="bike_bicycle" depart="841.36" departLane="best" from="695040105#2" to="408161670#9"/>
    <trip id="bike225" type="bike_bicycle" depart="845.12" departLane="best" from="698936203#2" to="695040107#0"/>
    <trip id="bike226" type="bike_bicycle" depart="848.87" departLane="best" from="118575975#3" to="-931369479#1"/>
    <trip id="bike227" type="bike_bicycle" depart="852.63" departLane="best" departSpeed="max" from="-695691449" to="693885803#2"/>
    <trip id="bike232" type="bike_bicycle" depart="871.41" departLane="best" from="295386152#3" to="-642035208#0"/>
    <trip id="bike234" type="bike_bicycle" depart="878.92" departLane="best" from="689583179#1" to="295386152#4"/>
    <trip id="bike235" type="bike_bicycle" depart="882.68" departLane="best" from="931369479#2" to="408161670#8"/>
    <trip id="bike237" type="bike_bicycle" depart="890.19" departLane="best" from="118573606#0" to="828678748"/>
    <trip id="bike238" type="bike_bicycle" depart="893.94" departLane="best" departSpeed="max" from="302751284" to="695027207"/>
    <trip id="bike239" type="bike_bicycle" depart="897.70" departLane="best" departSpeed="max" from="695510006" to="695511483"/>
    <trip id="bike241" type="bike_bicycle" depart="905.21" departLane="best" from="-828678749#1" to="695040107#3"/>
    <trip id="bike243" type="bike_bicycle" depart="912.72" departLane="best" from="118573606#0" to="-695040107#1"/>
    <trip id="bike244" type="bike_bicycle" depart="916.48" departLane="best" from="-295386152#6" to="693416739#0"/>
    <trip id="bike248" type="bike_bicycle" depart="931.50" departLane="best" from="931369479#1" to="695040107#1"/>
    <trip id="bike249" type="bike_bicycle" depart="935.26" departLane="best" from="118575975#1" to="-641423230"/>
    <trip id="bike251" type="bike_bicycle" depart="942.77" departLane="best" from="-828678900" to="642035207#0"/>
    <trip id="bike252" type="bike_bicycle" depart="946.53" departLane="best" from="-118575975#6" to="693885803#3"/>
    <trip id="bike253" type="bike_bicycle" depart="950.29" departLane="best" departSpeed="max" from="-404718839" to="-372468201#2"/>
    <trip id="bike254" type="bike_bicycle" depart="954.04" departLane="best" from="-295386152#2" to="295386152#2"/>
    <trip id="bike258" type="bike_bicycle" depart="969.07" departLane="best" departSpeed="max" from="-695691451" to="295386175#2"/>
    <trip id="bike259" type="bike_bicycle" depart="972.82" departLane="best" from="118575975#4" to="408161670#6"/>
    <trip id="bike260" type="bike_bicycle" depart="976.58" departLane="best" from="E4" to="295128790#10"/>
    <trip id="bike261" type="bike_bicycle" depart="980.33" departLane="best" from="408161670#3" to="695691449"/>
    <trip id="bike262" type="bike_bicycle" depart="984.09" departLane="best" from="408161670#4" to="695040107#3"/>
    <trip id="bike263" type="bike_bicycle" depart="987.85" departLane="best" from="828678897" to="695673446#0"/>
    <trip id="bike264" type="bike_bicycle" depart="991.60" departLane="best" from="118575975#4" to="-695040102#0"/>
    <trip id="bike266" type="bike_bicycle" depart="999.11" departLane="best" from="302739240#0" to="-828678745#1"/>
    <trip id="bike267" type="bike_bicycle" depart="1002.87" departLane="best" departSpeed="max" from="689583179#0" to="695673446#0"/>
    <trip id="bike268" type="bike_bicycle" depart="1006.63" departLane="best" departSpeed="max" from="-642067357#0" to="693416739#0.11"/>
    <trip id="bike270" type="bike_bicycle" depart="1014.14" departLane="best" from="695040102#1" to="931369478"/>
    <trip id="bike274" type="bike_bicycle" depart="1029.16" departLane="best" from="689583179#5" to="295386175#0"/>
    <trip id="bike277" type="bike_bicycle" depart="1040.43" departLane="best" from="695040107#3" to="693416739#0"/>
    <trip id="bike279" type="bike_bicycle" depart="1047.94" departLane="best" departSpeed="max" from="694830396" to="295128790#1"/>
    <trip id="bike280" type="bike_bicycle" depart="1051.70" departLane="best" from="118573606#10" to="295128790#9"/>
    <trip id="bike285" type="bike_bicycle" depart="1070.48" departLane="best" from="689583179#1" to="35950897#3"/>
    <trip id="bike286" type="bike_bicycle" depart="1074.24" departLane="best" from="693885802#2" to="931369478"/>
    <trip id="bike287" type="bike_bicycle" depart="1077.99" departLane="best" departSpeed="max" from="-695691453" to="695691453"/>
    <trip id="bike288" type="bike_bicycle" depart="1081.75" departLane="best" from="295386152#3" to="372469389#0"/>
    <trip id="bike291" type="bike_bicycle" depart="1093.02" departLane="best" from="695040105#2" to="-372467078#0"/>
    <trip id="bike292" type="bike_bicycle" depart="1096.77" departLane="best" from="695691450" to="-828678898"/>
    <trip id="bike293" type="bike_bicycle" depart="1100.53" departLane="best" from="-118575975#0" to="693416739#1"/>
    <trip id="bike296" type="bike_bicycle" depart="1111.80" departLane="best" from="-695040107#0" to="695691452"/>
    <trip id="bike297" type="bike_bicycle" depart="1115.55" departLane="best" departSpeed="max" from="-828678748" to="828678744"/>
    <trip id="bike298" type="bike_bicycle" depart="1119.31" departLane="best" departSpeed="max" from="689583179#0" to="118573606#1"/>
    <trip id="bike299" type="bike_bicycle" depart="1123.06" departLane="best" from="118575975#1" to="828678896"/>
    <trip id="bike301" type="bike_bicycle" depart="1130.58" departLane="best" from="118575975#6" to="695510004"/>
    <trip id="bike302" type="bike_bicycle" depart="1134.33" departLane="best" from="642035208#0" to="693885803#5"/>
    <trip id="bike303" type="bike_bicycle" depart="1138.09" departLane="best" departSpeed="max" from="1199455963" to="695691451"/>
    <trip id="bike306" type="bike_bicycle" depart="1149.36" departLane="best" departSpeed="max" from="302751284" to="372469388#0"/>
    <trip id="bike307" type="bike_bicycle" depart="1153.11" departLane="best" from="-295386152#1" to="302739240#2"/>
    <trip id="bike309" type="bike_bicycle" depart="1160.63" departLane="best" departSpeed="max" from="689583179#0" to="118573606#0"/>
    <trip id="bike310" type="bike_bicycle" depart="1164.38" departLane="best" departSpeed="max" from="-695691449" to="-372469388#1"/>
    <trip id="bike311" type="bike_bicycle" depart="1168.14" departLane="best" departSpeed="max" from="-695027208" to="-372469388#1"/>
    <trip id="bike312" type="bike_bicycle" depart="1171.89" departLane="best" from="295386152#2" to="695511482#4"/>
    <trip id="bike313" type="bike_bicycle" depart="1175.65" departLane="best" departSpeed="max" from="-695027207" to="-828678745#1"/>
    <trip id="bike314" type="bike_bicycle" depart="1179.41" departLane="best" from="118575975#5" to="695040103"/>
    <trip id="bike315" type="bike_bicycle" depart="1183.16" departLane="best" from="931369479#2" to="408161670#2"/>
    <trip id="bike316" type="bike_bicycle" depart="1186.92" departLane="best" departSpeed="max" from="-696756023" to="-372468201#1"/>
    <trip id="bike317" type="bike_bicycle" depart="1190.67" departLane="best" departSpeed="max" from="-695027208" to="-828678845"/>
    <trip id="bike318" type="bike_bicycle" depart="1194.43" departLane="best" departSpeed="max" from="-695027206" to="-118575975#0"/>
    <trip id="bike319" type="bike_bicycle" depart="1198.19" departLane="best" from="295386152#2" to="118573606#1"/>
    <trip id="bike321" type="bike_bicycle" depart="1205.70" departLane="best" departSpeed="max" from="689583179#0" to="-641423230"/>
    <trip id="bike323" type="bike_bicycle" depart="1213.21" departLane="best" departSpeed="max" from="695512891" to="642035208#0"/>
    <trip id="bike324" type="bike_bicycle" depart="1216.97" departLane="best" from="-118575975#1" to="35950897#3"/>
    <trip id="bike325" type="bike_bicycle" depart="1220.72" departLane="best" departSpeed="max" from="-695027207" to="-295386152#0"/>
    <trip id="bike327" type="bike_bicycle" depart="1228.23" departLane="best" from="695040102#1" to="295386152#8"/>
    <trip id="bike329" type="bike_bicycle" depart="1235.75" departLane="best" from="295386152#3" to="-695033472#2"/>
    <trip id="bike333" type="bike_bicycle" depart="1250.77" departLane="best" from="694830397" to="-828678749#1"/>
    <trip id="bike337" type="bike_bicycle" depart="1265.80" departLane="best" from="408161670#0" to="693416739#1"/>
    <trip id="bike338" type="bike_bicycle" depart="1269.55" departLane="best" from="693885802#3" to="828678896"/>
    <trip id="bike339" type="bike_bicycle" depart="1273.31" departLane="best" departSpeed="max" from="-695040103" to="-828678745#0"/>
    <trip id="bike341" type="bike_bicycle" depart="1280.82" departLane="best" departSpeed="max" from="-642067357#0" to="295386175#0"/>
    <trip id="bike342" type="bike_bicycle" depart="1284.58" departLane="best" from="-118575972#2" to="372467078#1"/>
    <trip id="bike345" type="bike_bicycle" depart="1295.84" departLane="best" departSpeed="max" from="689583179#0" to="372468201#0"/>
    <trip id="bike346" type="bike_bicycle" depart="1299.60" departLane="best" from="-642035207#1" to="828678849"/>
    <trip id="bike347" type="bike_bicycle" depart="1303.36" departLane="best" departSpeed="max" from="694830396" to="693885802#2"/>
    <trip id="bike348" type="bike_bicycle" depart="1307.11" departLane="best" from="408161670#8" to="828678895"/>
    <trip id="bike349" type="bike_bicycle" depart="1310.87" departLane="best" from="118573606#1" to="408161670#9"/>
    <trip id="bike351" type="bike_bicycle" depart="1318.38" departLane="best" from="695040105#1" to="295386152#7"/>
    <trip id="bike354" type="bike_bicycle" depart="1329.65" departLane="best" departSpeed="max" from="-696756023" to="-641423230"/>
    <trip id="bike357" type="bike_bicycle" depart="1340.92" departLane="best" departSpeed="max" from="1199455963" to="295386175#1"/>
    <trip id="bike358" type="bike_bicycle" depart="1344.67" departLane="best" from="-1255581684" to="35950897#2"/>
    <trip id="bike359" type="bike_bicycle" depart="1348.43" departLane="best" departSpeed="max" from="-828678746" to="-931369478"/>
    <trip id="bike361" type="bike_bicycle" depart="1355.94" departLane="best" from="695040105#3" to="642035208#1"/>
    <trip id="bike362" type="bike_bicycle" depart="1359.70" departLane="best" from="828678897" to="E4"/>
    <trip id="bike363" type="bike_bicycle" depart="1363.45" departLane="best" departSpeed="max" from="641397122" to="1096471623#0"/>
    <trip id="bike364" type="bike_bicycle" depart="1367.21" departLane="best" from="-1255581684" to="695510004"/>
    <trip id="bike365" type="bike_bicycle" depart="1370.96" departLane="best" from="-118575975#2" to="693885803#6"/>
    <trip id="bike366" type="bike_bicycle" depart="1374.72" departLane="best" from="828678744" to="-695512891"/>
    <trip id="bike367" type="bike_bicycle" depart="1378.48" departLane="best" from="35950897#2" to="693885803#11"/>
    <trip id="bike368" type="bike_bicycle" depart="1382.23" departLane="best" departSpeed="max" from="1199455963" to="-372467078#0"/>
    <trip id="bike369" type="bike_bicycle" depart="1385.99" departLane="best" from="828678749#0" to="-118575975#6"/>
    <trip id="bike370" type="bike_bicycle" depart="1389.75" departLane="best" departSpeed="max" from="641397122" to="828678741#1"/>
    <trip id="bike371" type="bike_bicycle" depart="1393.50" departLane="best" departSpeed="max" from="-828678747" to="695027207"/>
    <trip id="bike372" type="bike_bicycle" depart="1397.26" departLane="best" departSpeed="max" from="-696756023" to="828678896"/>