<?xml version="1.0" encoding="UTF-8"?>

<!-- generated on 2025-07-01 14:30:09.988301 by randomTrips.py v1_23_1+0000-676720d13f6
<configuration>
    <net-file value="osm.net.xml.gz"/>
    <output-trip-file value="osm.motorcycle.trips.xml"/>
    <route-file value="osm.motorcycle.rou.xml"/>
    <prefix value="motorcycle"/>
    <trip-attributes value="departLane=&quot;best&quot;"/>
    <fringe-start-attributes value="departSpeed=&quot;max&quot;"/>
    <vehicle-class value="motorcycle"/>
    <fringe-factor value="2"/>
    <edge-permission value="motorcycle"/>
    <via-edge-types value="highway.motorway,highway.motorway_link,highway.trunk_link,highway.primary_link,highway.secondary_link,highway.tertiary_link"/>
    <max-distance value="1200.0"/>
    <remove-loops value="True"/>
    <validate value="True"/>
    <insertion-density value="40.0"/>
</configuration>
-->

<!-- generated on 2025-07-01 14:30:09 by Eclipse SUMO duarouter Version 1.23.1
<duarouterConfiguration xmlns:xsi="http://www.w3.org/2001/XMLSchema-instance" xsi:noNamespaceSchemaLocation="http://sumo.dlr.de/xsd/duarouterConfiguration.xsd">

    <input>
        <net-file value="osm.net.xml.gz"/>
        <route-files value="osm.motorcycle.trips.xml"/>
    </input>

    <output>
        <output-file value="osm.motorcycle.rou.xml"/>
        <alternatives-output value="NUL"/>
    </output>

    <processing>
        <remove-loops value="true"/>
    </processing>

    <time>
        <begin value="0.0"/>
        <end value="3600.0"/>
    </time>

    <report>
        <no-warnings value="true"/>
        <ignore-errors value="true"/>
        <no-step-log value="true"/>
    </report>

</duarouterConfiguration>
-->

<routes xmlns:xsi="http://www.w3.org/2001/XMLSchema-instance" xsi:noNamespaceSchemaLocation="http://sumo.dlr.de/xsd/routes_file.xsd">
    <vType id="motorcycle_motorcycle" vClass="motorcycle"/>
    <vehicle id="motorcycle0" type="motorcycle_motorcycle" depart="0.00" departLane="best" departSpeed="max">
        <route edges="641423230 -118575975#1"/>
    </vehicle>
    <vehicle id="motorcycle1" type="motorcycle_motorcycle" depart="7.74" departLane="best">
        <route edges="693885803#3 693885803#5"/>
    </vehicle>
    <vehicle id="motorcycle2" type="motorcycle_motorcycle" depart="15.48" departLane="best" departSpeed="max">
        <route edges="698936203#0 698936203#1 -295386152#3 -295386152#2"/>
    </vehicle>
    <vehicle id="motorcycle3" type="motorcycle_motorcycle" depart="23.21" departLane="best">
        <route edges="118575975#5 118575975#6 295386152#1 295386152#2 295386152#3 698936203#2 698936203#3 1279915895#1 408161670#0 408161670#1"/>
    </vehicle>
    <vehicle id="motorcycle4" type="motorcycle_motorcycle" depart="30.95" departLane="best">
        <route edges="-118575975#3 828678741#0 828678740 302739240#2 302739240#3 693885802#2 693885802#3 -295386152#0 295386152#1 295386152#2 295386152#3 698936203#2 -828678749#1"/>
    </vehicle>
    <vehicle id="motorcycle5" type="motorcycle_motorcycle" depart="38.69" departLane="best" departSpeed="max">
        <route edges="689583179#0 689583179#1 689583179#2 689583179#4 302739240#0 302739240#1 302739240#2 302739240#3 693885802#2 693885802#3 695030266 1279915895#1 408161670#0 408161670#1 408161670#2 408161670#3 408161670#4"/>
    </vehicle>
    <vehicle id="motorcycle6" type="motorcycle_motorcycle" depart="46.43" departLane="best">
        <route edges="-828678745#1 828678744 -118575975#4 -118575975#3 -118575975#2 -118575975#1 -118575975#0 118575972#1 689583179#1 689583179#2 689583179#4"/>
    </vehicle>
    <vehicle id="motorcycle7" type="motorcycle_motorcycle" depart="54.16" departLane="best">
        <route edges="695025559 693885802#0 693885802#1 693885802#2 693885802#3 -295386152#0 -118575975#6 -118575975#5 -118575975#4 -118575975#3 -118575975#2 -118575975#1 -118575975#0 -118575972#0"/>
    </vehicle>
    <vehicle id="motorcycle8" type="motorcycle_motorcycle" depart="61.90" departLane="best">
        <route edges="694830397.22 695025562#1 693885803#0 693885803#2 693885803#3 693885803#5 693885803#6 693885803#8 693885803#9"/>
    </vehicle>
    <vehicle id="motorcycle9" type="motorcycle_motorcycle" depart="69.64" departLane="best" departSpeed="max">
        <route edges="118575972#0 118575975#0 118575975#1 118575975#2 118575975#3 118575975#4 118575975#5 118575975#6 295386152#1 295386152#2 295386152#3 295386152#4 -695040102#1"/>
    </vehicle>
    <vehicle id="motorcycle10" type="motorcycle_motorcycle" depart="77.38" departLane="best">
        <route edges="828678749#0 -695040102#0 695040105#3 295128790#1 295128790#2"/>
    </vehicle>
    <vehicle id="motorcycle11" type="motorcycle_motorcycle" depart="85.11" departLane="best">
        <route edges="-295386152#7 -295386152#6 -295386152#4"/>
    </vehicle>
    <vehicle id="motorcycle12" type="motorcycle_motorcycle" depart="92.85" departLane="best">
        <route edges="695040105#1 695040105#2 695040102#0 828678749#1 698936203#3 295128790#5 295128790#6 295128790#7 295128790#8 295128790#9 295128790#10 693885804#1 693885804#1.60 693416739#0"/>
    </vehicle>
    <vehicle id="motorcycle13" type="motorcycle_motorcycle" depart="100.59" departLane="best">
        <route edges="694830397.22"/>
    </vehicle>
    <vehicle id="motorcycle14" type="motorcycle_motorcycle" depart="108.33" departLane="best">
        <route edges="118575975#4 118575975#5 118575975#6 295386152#1 295386152#2 295386152#3 698936203#2 698936203#3 1279915895#1 408161670#0 408161670#1 408161670#2 408161670#3 408161670#4 408161670#5"/>
    </vehicle>
    <vehicle id="motorcycle15" type="motorcycle_motorcycle" depart="116.07" departLane="best">
        <route edges="695040102#0 828678749#1 698936203#3 295128790#5 295128790#6 295128790#7 295128790#8 295128790#9 295128790#10 693885804#1 693885804#1.60 693416739#0 693416739#0.11 693416739#1"/>
    </vehicle>
    <vehicle id="motorcycle16" type="motorcycle_motorcycle" depart="123.80" departLane="best">
        <route edges="693885802#2 693885802#3 -295386152#0 -118575975#6 -118575975#5 -118575975#4"/>
    </vehicle>
    <vehicle id="motorcycle17" type="motorcycle_motorcycle" depart="131.54" departLane="best" departSpeed="max">
        <route edges="-828678746 -295386152#2 -295386152#1 -118575975#6 -118575975#5 -118575975#4 -118575975#3"/>
    </vehicle>
    <vehicle id="motorcycle18" type="motorcycle_motorcycle" depart="139.28" departLane="best">
        <route edges="295386152#3 698936203#2 698936203#3 695040105#0 695040105#1 695040105#2 695040105#3 118573606#3"/>
    </vehicle>
    <vehicle id="motorcycle19" type="motorcycle_motorcycle" depart="147.02" departLane="best" departSpeed="max">
        <route edges="-295386152#8 -295386152#7 -295386152#6 -295386152#4 -295386152#3 -295386152#2 -295386152#1 -118575975#6 -118575975#5 -118575975#4 -118575975#3 -118575975#2 -118575975#1"/>
    </vehicle>
    <vehicle id="motorcycle20" type="motorcycle_motorcycle" depart="154.75" departLane="best" departSpeed="max">
        <route edges="641423230 118575975#2 118575975#3 118575975#4 118575975#5 118575975#6 295386152#1 295386152#2 295386152#3 698936203#2 698936203#3 295128790#5 295128790#6 295128790#7 295128790#8 295128790#9"/>
    </vehicle>
    <vehicle id="motorcycle21" type="motorcycle_motorcycle" depart="162.49" departLane="best">
        <route edges="118575975#2 118575975#3 118575975#4 118575975#5 118575975#6 295386152#1 295386152#2 295386152#3 295386152#4 295386152#6 118573606#0"/>
    </vehicle>
    <vehicle id="motorcycle22" type="motorcycle_motorcycle" depart="170.23" departLane="best" departSpeed="max">
        <route edges="689583179#0 689583179#1 689583179#2 689583179#4 E2 693416739#0.11"/>
    </vehicle>
    <vehicle id="motorcycle23" type="motorcycle_motorcycle" depart="177.97" departLane="best" departSpeed="max">
        <route edges="-696756023 -295386152#7 -295386152#6 -295386152#4 -295386152#3 -295386152#2"/>
    </vehicle>
    <vehicle id="motorcycle24" type="motorcycle_motorcycle" depart="185.71" departLane="best">
        <route edges="695040105#0"/>
    </vehicle>
    <vehicle id="motorcycle25" type="motorcycle_motorcycle" depart="193.44" departLane="best" departSpeed="max">
        <route edges="-828678746 -295386152#2 -295386152#1 -118575975#6 -118575975#5 -118575975#4 -118575975#3 -118575975#2"/>
    </vehicle>
    <vehicle id="motorcycle26" type="motorcycle_motorcycle" depart="201.18" departLane="best" departSpeed="max">
        <route edges="695510006 295128790#1 295128790#2 1279915895#1"/>
    </vehicle>
    <vehicle id="motorcycle27" type="motorcycle_motorcycle" depart="208.92" departLane="best">
        <route edges="689583179#1 689583179#2 689583179#4 302739240#0 302739240#1 302739240#2 302739240#3 693885802#2 693885802#3 -295386152#0 295386152#1 295386152#2 295386152#3 295386152#4 295386152#6"/>
    </vehicle>
    <vehicle id="motorcycle28" type="motorcycle_motorcycle" depart="216.66" departLane="best">
        <route edges="-828678749#0 118573606#1 118573606#3 118573606#4 118573606#6"/>
    </vehicle>
    <vehicle id="motorcycle29" type="motorcycle_motorcycle" depart="224.39" departLane="best">
        <route edges="-295386152#6 -295386152#4 -295386152#3 -295386152#2 -295386152#1 -118575975#6 -118575975#5 -118575975#4"/>
    </vehicle>
    <vehicle id="motorcycle30" type="motorcycle_motorcycle" depart="232.13" departLane="best" departSpeed="max">
        <route edges="694830396 694830397 694830397.22 695025562#1 695025559 693885802#0 693885802#1 693885802#2 693885802#3 -295386152#0 -118575975#6 -118575975#5 -118575975#4 -118575975#3 -118575975#2 -118575975#1 -118575975#0 118575972#1 689583179#1 689583179#2 689583179#4 302739240#0"/>
    </vehicle>
    <vehicle id="motorcycle31" type="motorcycle_motorcycle" depart="239.87" departLane="best">
        <route edges="295386152#1 295386152#2 295386152#3"/>
    </vehicle>
    <vehicle id="motorcycle32" type="motorcycle_motorcycle" depart="247.61" departLane="best">
        <route edges="E0 695025562#1 695025559 693885802#0 693885802#1 693885802#2 693885802#3 -295386152#0 -118575975#6 -118575975#5 -118575975#4 -118575975#3 828678741#0 828678740"/>
    </vehicle>
    <vehicle id="motorcycle33" type="motorcycle_motorcycle" depart="255.34" departLane="best">
        <route edges="-828678749#1 695040102#1 -295386152#4 -295386152#3 -295386152#2 -295386152#1 -118575975#6 -118575975#5 -118575975#4 -118575975#3 828678741#0 828678740 302739240#2 302739240#3 693885802#2"/>
    </vehicle>
    <vehicle id="motorcycle34" type="motorcycle_motorcycle" depart="263.08" departLane="best">
        <route edges="295386152#1 828678748"/>
    </vehicle>
    <vehicle id="motorcycle35" type="motorcycle_motorcycle" depart="270.82" departLane="best">
        <route edges="302739240#2 302739240#3 693885802#2 693885802#3 -295386152#0 -118575975#6 -828678745#1 -828678745#0"/>
    </vehicle>
    <vehicle id="motorcycle36" type="motorcycle_motorcycle" depart="278.56" departLane="best">
        <route edges="698936203#3 695040105#0 695040105#1 695040105#2 695040102#0 695040102#1 -295386152#4 -295386152#3 -295386152#2 -295386152#1 -118575975#6 -118575975#5 -118575975#4 -118575975#3 828678741#0 828678741#1"/>
    </vehicle>
    <vehicle id="motorcycle37" type="motorcycle_motorcycle" depart="286.30" departLane="best">
        <route edges="694829084#1 E0 695025562#1 695025559 693885802#0 693885802#1 693885802#2 693885802#3 695030266 1279915895#1 408161670#0 408161670#1 408161670#2 408161670#3 408161670#4 408161670#5 408161670#6 408161670#8 408161670#9 408161670#10 408161670#11 408161670#12 408161670#13"/>
    </vehicle>
    <vehicle id="motorcycle38" type="motorcycle_motorcycle" depart="294.03" departLane="best">
        <route edges="-118575972#2 118575975#0 118575975#1 118575975#2 118575975#3 118575975#4 118575975#5 118575975#6 295386152#1 295386152#2 295386152#3 295386152#4 295386152#6 118573606#0 118573606#1 295128790#1"/>
    </vehicle>
    <vehicle id="motorcycle39" type="motorcycle_motorcycle" depart="301.77" departLane="best">
        <route edges="118575975#2 118575975#3 118575975#4 118575975#5 118575975#6 295386152#1 295386152#2 828678746"/>
    </vehicle>
    <vehicle id="motorcycle40" type="motorcycle_motorcycle" depart="309.51" departLane="best">
        <route edges="-295386152#4 -295386152#3 -295386152#2 -295386152#1 -118575975#6 -118575975#5 -118575975#4 -118575975#3 -118575975#2 -118575975#1 -118575975#0 118575972#1 689583179#1 404718839"/>
    </vehicle>
    <vehicle id="motorcycle41" type="motorcycle_motorcycle" depart="317.25" departLane="best">
        <route edges="-295386152#2 -295386152#1 -118575975#6 -118575975#5 -118575975#4 -118575975#3 828678741#0 828678740 302739240#2 302739240#3 693885802#2 693885802#3 695030266"/>
    </vehicle>
    <vehicle id="motorcycle42" type="motorcycle_motorcycle" depart="324.98" departLane="best">
        <route edges="-295386152#4 698936203#2 698936203#3 1279915895#1 408161670#0 408161670#1 408161670#2 408161670#3 408161670#4"/>
    </vehicle>
    <vehicle id="motorcycle43" type="motorcycle_motorcycle" depart="332.72" departLane="best">
        <route edges="828678749#0 695040102#1 -295386152#4 -295386152#3 -295386152#2 -295386152#1 -118575975#6 -118575975#5 -118575975#4 -118575975#3 828678741#0 828678741#1"/>
    </vehicle>
    <vehicle id="motorcycle44" type="motorcycle_motorcycle" depart="340.46" departLane="best" departSpeed="max">
        <route edges="-828678743 118575975#4 118575975#5 118575975#6"/>
    </vehicle>
    <vehicle id="motorcycle45" type="motorcycle_motorcycle" depart="348.20" departLane="best" departSpeed="max">
        <route edges="-404718839 689583179#2 689583179#4 302739240#0 302739240#1 302739240#2 302739240#3 693885802#2 693885802#3 695030266 695040105#0 695040105#1 695040105#2 695040105#3 118573606#3 118573606#4 118573606#6 118573606#8 118573606#9 118573606#10"/>
    </vehicle>
    <vehicle id="motorcycle46" type="motorcycle_motorcycle" depart="355.93" departLane="best" departSpeed="max">
        <route edges="118575972#0 118575972#1 689583179#1 689583179#2 689583179#4"/>
    </vehicle>
    <vehicle id="motorcycle47" type="motorcycle_motorcycle" depart="363.67" departLane="best" departSpeed="max">
        <route edges="-828678746 295386152#3 698936203#2 698936203#3 695040105#0 695040105#1 695040105#2 695040105#3 118573606#3 118573606#4 118573606#6 118573606#8 118573606#9 118573606#10"/>
    </vehicle>
    <vehicle id="motorcycle48" type="motorcycle_motorcycle" depart="371.41" departLane="best" departSpeed="max">
        <route edges="-828678746 -295386152#2 -295386152#1 -118575975#6 -118575975#5 -118575975#4 828678743"/>
    </vehicle>
    <vehicle id="motorcycle49" type="motorcycle_motorcycle" depart="379.15" departLane="best" departSpeed="max">
        <route edges="-828678747 698936203#1 698936203#2 698936203#3 295128790#5 295128790#6 295128790#7 295128790#8 295128790#9 295128790#10 693885803#0 693885803#2 693885803#3"/>
    </vehicle>
    <vehicle id="motorcycle50" type="motorcycle_motorcycle" depart="386.89" departLane="best">
        <route edges="-118575975#5 -118575975#4 -118575975#3 -118575975#2 -641423230"/>
    </vehicle>
    <vehicle id="motorcycle51" type="motorcycle_motorcycle" depart="394.62" departLane="best">
        <route edges="828678744 118575975#5 118575975#6 295386152#1 295386152#2 295386152#3 698936203#2 698936203#3 1279915895#1 408161670#0 408161670#1 408161670#2 408161670#3 408161670#4 408161670#5 408161670#6 408161670#8 408161670#9"/>
    </vehicle>
    <vehicle id="motorcycle52" type="motorcycle_motorcycle" depart="402.36" departLane="best">
        <route edges="-295386152#4 698936203#2 698936203#3 695040105#0 695040105#1"/>
    </vehicle>
    <vehicle id="motorcycle53" type="motorcycle_motorcycle" depart="410.10" departLane="best">
        <route edges="694830397.22 695025562#1 695025559 693885802#0 693885802#1 693885802#2 693885802#3 -295386152#0 295386152#1 295386152#2 295386152#3 698936203#2 -828678749#1 -828678749#0"/>
    </vehicle>
    <vehicle id="motorcycle54" type="motorcycle_motorcycle" depart="417.84" departLane="best">
        <route edges="-295386152#7 -295386152#6 -295386152#4 -295386152#3 -295386152#2 -295386152#1 -118575975#6 -118575975#5 -118575975#4 -118575975#3 -118575975#2 -118575975#1 -118575975#0 118575972#1 689583179#1 689583179#2 689583179#4 302739240#0 302739240#1"/>
    </vehicle>
    <vehicle id="motorcycle55" type="motorcycle_motorcycle" depart="425.57" departLane="best">
        <route edges="693885803#2 693885803#3"/>
    </vehicle>
    <vehicle id="motorcycle56" type="motorcycle_motorcycle" depart="433.31" departLane="best">
        <route edges="295128790#1 295128790#2 295128790#5"/>
    </vehicle>
    <vehicle id="motorcycle57" type="motorcycle_motorcycle" depart="441.05" departLane="best">
        <route edges="695040105#3 118573606#3 118573606#4 118573606#6"/>
    </vehicle>
    <vehicle id="motorcycle58" type="motorcycle_motorcycle" depart="448.79" departLane="best" departSpeed="max">
        <route edges="-828678742 -118575975#0 118575972#1 689583179#1 689583179#2 689583179#4 689583179#5 1096471623#0 695511482#4 35950897#2"/>
    </vehicle>
    <vehicle id="motorcycle59" type="motorcycle_motorcycle" depart="456.52" departLane="best" departSpeed="max">
        <route edges="-828678748 295386152#2 828678746"/>
    </vehicle>
    <vehicle id="motorcycle60" type="motorcycle_motorcycle" depart="464.26" departLane="best">
        <route edges="-828678749#1 695040102#1 -295386152#4 -295386152#3 828678746"/>
    </vehicle>
    <vehicle id="motorcycle61" type="motorcycle_motorcycle" depart="472.00" departLane="best">
        <route edges="695040105#1 695040105#2 695040102#0 695040102#1 -295386152#4 -295386152#3 -295386152#2 -295386152#1 -118575975#6 -118575975#5 -828678744"/>
    </vehicle>
    <vehicle id="motorcycle62" type="motorcycle_motorcycle" depart="479.74" departLane="best">
        <route edges="-295386152#7 118573606#0 118573606#1"/>
    </vehicle>
    <vehicle id="motorcycle63" type="motorcycle_motorcycle" depart="487.48" departLane="best">
        <route edges="-118575975#4 -118575975#3 -118575975#2 -118575975#1 -118575975#0 118575972#1 689583179#1 689583179#2 689583179#4 E2"/>
    </vehicle>
    <vehicle id="motorcycle64" type="motorcycle_motorcycle" depart="495.21" departLane="best">
        <route edges="828678749#0 828678749#1 698936203#3 695040105#0 695040105#1"/>
    </vehicle>
    <vehicle id="motorcycle65" type="motorcycle_motorcycle" depart="502.95" departLane="best">
        <route edges="-295386152#1 -118575975#6 -118575975#5 -118575975#4 -118575975#3 -118575975#2 -118575975#1 -118575975#0 118575972#1 689583179#1 689583179#2 689583179#4 302739240#0"/>
    </vehicle>
    <vehicle id="motorcycle66" type="motorcycle_motorcycle" depart="510.69" departLane="best">
        <route edges="828678749#0 828678749#1 698936203#3 295128790#5 295128790#6 295128790#7 295128790#8 295128790#9 295128790#10 693885804#1 E4"/>
    </vehicle>
    <vehicle id="motorcycle67" type="motorcycle_motorcycle" depart="518.43" departLane="best" departSpeed="max">
        <route edges="-696756023 -295386152#7 -295386152#6 -295386152#4 -295386152#3 -295386152#2 -295386152#1 -118575975#6 -118575975#5 -118575975#4"/>
    </vehicle>
    <vehicle id="motorcycle68" type="motorcycle_motorcycle" depart="526.16" departLane="best">
        <route edges="-828678749#1 695040102#1 -295386152#4 -295386152#3 -295386152#2 -295386152#1 -118575975#6 -118575975#5 -118575975#4 -118575975#3 -118575975#2 -118575975#1 -118575975#0 118575972#1 689583179#1"/>
    </vehicle>
    <vehicle id="motorcycle69" type="motorcycle_motorcycle" depart="533.90" departLane="best">
        <route edges="-295386152#0 -118575975#6 -118575975#5 -118575975#4 -118575975#3 -118575975#2 -118575975#1 -118575975#0 118575972#1 689583179#1 689583179#2"/>
    </vehicle>
    <vehicle id="motorcycle70" type="motorcycle_motorcycle" depart="541.64" departLane="best">
        <route edges="302739240#2 302739240#3 693885802#2 693885802#3 -295386152#0 -118575975#6 -118575975#5 -118575975#4 -118575975#3 -118575975#2 -118575975#1 -118575975#0 118575972#1 689583179#1 689583179#2 689583179#4 689583179#5 693885804#1 693885804#1.60 779462187#1.4 779462187#1.9"/>
    </vehicle>
    <vehicle id="motorcycle71" type="motorcycle_motorcycle" depart="549.38" departLane="best" departSpeed="max">
        <route edges="-696756023 -295386152#7 118573606#0 828678749#0"/>
    </vehicle>
    <vehicle id="motorcycle72" type="motorcycle_motorcycle" depart="557.12" departLane="best">
        <route edges="-295386152#3 -295386152#2 -295386152#1 -118575975#6 -828678745#1"/>
    </vehicle>
    <vehicle id="motorcycle73" type="motorcycle_motorcycle" depart="564.85" departLane="best" departSpeed="max">
        <route edges="-828678747 698936203#1 698936203#2 698936203#3 1279915895#1 408161670#0 408161670#1 408161670#2 408161670#3 408161670#4 408161670#5 408161670#6 408161670#8 408161670#9 408161670#10 408161670#11 408161670#12 408161670#13 -372467078#1 -372467078#0"/>
    </vehicle>
    <vehicle id="motorcycle74" type="motorcycle_motorcycle" depart="572.59" departLane="best" departSpeed="max">
        <route edges="698936203#0 698936203#1 698936203#2 698936203#3 695040105#0 695040105#1 695040105#2 695040105#3 118573606#3 118573606#4 118573606#6"/>
    </vehicle>
    <vehicle id="motorcycle75" type="motorcycle_motorcycle" depart="580.33" departLane="best" departSpeed="max">
        <route edges="-828678747 698936203#1 295386152#4 295386152#6"/>
    </vehicle>
    <vehicle id="motorcycle76" type="motorcycle_motorcycle" depart="588.07" departLane="best">
        <route edges="689583179#4 302739240#0 302739240#1 -1255581684 -828678741#0 118575975#3 118575975#4"/>
    </vehicle>
    <vehicle id="motorcycle77" type="motorcycle_motorcycle" depart="595.80" departLane="best">
        <route edges="295386152#2 295386152#3 698936203#2 698936203#3 295128790#5 295128790#6 295128790#7 295128790#8 295128790#9 295128790#10 1096471623#0 695511482#4 35950897#2 35950897#3"/>
    </vehicle>
    <vehicle id="motorcycle78" type="motorcycle_motorcycle" depart="603.54" departLane="best">
        <route edges="E4"/>
    </vehicle>
    <vehicle id="motorcycle79" type="motorcycle_motorcycle" depart="611.28" departLane="best">
        <route edges="295386152#2 295386152#3 295386152#4 295386152#6 118573606#0 118573606#1"/>
    </vehicle>
    <vehicle id="motorcycle80" type="motorcycle_motorcycle" depart="619.02" departLane="best">
        <route edges="118575975#2 828678741#0"/>
    </vehicle>
    <vehicle id="motorcycle81" type="motorcycle_motorcycle" depart="626.75" departLane="best">
        <route edges="695040102#1 -295386152#4 698936203#2 698936203#3 295128790#5 295128790#6 295128790#7 295128790#8 295128790#9 295128790#10 693885804#1"/>
    </vehicle>
    <vehicle id="motorcycle82" type="motorcycle_motorcycle" depart="634.49" departLane="best" departSpeed="max">
        <route edges="689583179#0 -118575972#2 -118575972#0"/>
    </vehicle>
    <vehicle id="motorcycle83" type="motorcycle_motorcycle" depart="642.23" departLane="best">
        <route edges="695025562#1 695025559 693885802#0 693885802#1 693885802#2 693885802#3 -295386152#0 -118575975#6 -118575975#5 -118575975#4"/>
    </vehicle>
    <vehicle id="motorcycle84" type="motorcycle_motorcycle" depart="649.97" departLane="best" departSpeed="max">
        <route edges="-695027208 302739240#3 693885802#2 693885802#3 695030266 1279915895#1 408161670#0 408161670#1 408161670#2 408161670#3 408161670#4 408161670#5 408161670#6 408161670#8 408161670#9 408161670#10 408161670#11 408161670#12 408161670#13 -372467078#1 -372467078#0"/>
    </vehicle>
    <vehicle id="motorcycle85" type="motorcycle_motorcycle" depart="657.71" departLane="best" departSpeed="max">
        <route edges="-295386152#8 -295386152#7 -295386152#6 -295386152#4 698936203#2 698936203#3 1279915895#1 408161670#0 408161670#1 408161670#2 408161670#3 408161670#4 408161670#5"/>
    </vehicle>
    <vehicle id="motorcycle86" type="motorcycle_motorcycle" depart="665.44" departLane="best" departSpeed="max">
        <route edges="641423230 -118575975#1 -118575975#0 118575972#1"/>
    </vehicle>
    <vehicle id="motorcycle87" type="motorcycle_motorcycle" depart="673.18" departLane="best">
        <route edges="302739240#0 302739240#1 302739240#2 302739240#3 693885802#2 693885802#3 -295386152#0 -118575975#6 -118575975#5 -118575975#4 828678743"/>
    </vehicle>
    <vehicle id="motorcycle88" type="motorcycle_motorcycle" depart="680.92" departLane="best">
        <route edges="695040105#1 695040105#2 695040102#0 695040102#1 -295386152#4 -295386152#3"/>
    </vehicle>
    <vehicle id="motorcycle89" type="motorcycle_motorcycle" depart="688.66" departLane="best">
        <route edges="-118575972#2 118575975#0 118575975#1 118575975#2 118575975#3 118575975#4 118575975#5 118575975#6 295386152#1 295386152#2 295386152#3 698936203#2 -828678749#1 695040102#1"/>
    </vehicle>
    <vehicle id="motorcycle90" type="motorcycle_motorcycle" depart="696.39" departLane="best" departSpeed="max">
        <route edges="641423230 118575975#2 118575975#3 118575975#4 118575975#5 118575975#6 295386152#1 295386152#2 295386152#3 698936203#2 698936203#3 695040105#0 695040105#1 695040105#2 695040105#3 118573606#3 118573606#4 118573606#6 118573606#8 118573606#9"/>
    </vehicle>
    <vehicle id="motorcycle91" type="motorcycle_motorcycle" depart="704.13" departLane="best">
        <route edges="-295386152#3 -295386152#2 -295386152#1 -118575975#6 -118575975#5 -118575975#4 -118575975#3 -118575975#2 -118575975#1 828678742"/>
    </vehicle>
    <vehicle id="motorcycle92" type="motorcycle_motorcycle" depart="711.87" departLane="best">
        <route edges="698936203#2 698936203#3 1279915895#1 408161670#0 408161670#1 408161670#2 408161670#3 408161670#4"/>
    </vehicle>
    <vehicle id="motorcycle93" type="motorcycle_motorcycle" depart="719.61" departLane="best">
        <route edges="695040102#1 -295386152#4 -295386152#3 -295386152#2 -295386152#1 -118575975#6 -118575975#5 -118575975#4 -118575975#3 -118575975#2 -118575975#1 -118575975#0 118575972#1 689583179#1 689583179#2"/>
    </vehicle>
    <vehicle id="motorcycle94" type="motorcycle_motorcycle" depart="727.34" departLane="best">
        <route edges="-695040102#0 695040105#3 118573606#3 118573606#4 118573606#6 118573606#8 118573606#9 118573606#10 118573606#12 372467078#0 372467078#1"/>
    </vehicle>
    <vehicle id="motorcycle95" type="motorcycle_motorcycle" depart="735.08" departLane="best" departSpeed="max">
        <route edges="694830396 694830397 694830397.22 695025562#1 695025559 693885802#0 693885802#1 693885802#2 693885802#3 -295386152#0 -118575975#6 -118575975#5 -118575975#4 -118575975#3 828678741#0 828678740"/>
    </vehicle>
    <vehicle id="motorcycle96" type="motorcycle_motorcycle" depart="742.82" departLane="best">
        <route edges="698936203#1 295386152#4 295386152#6 118573606#0"/>
    </vehicle>
    <vehicle id="motorcycle97" type="motorcycle_motorcycle" depart="750.56" departLane="best" departSpeed="max">
        <route edges="-828678748 295386152#2 295386152#3 295386152#4 295386152#6"/>
    </vehicle>
    <vehicle id="motorcycle98" type="motorcycle_motorcycle" depart="758.30" departLane="best">
        <route edges="694829084#1 E0 695025562#1 695025559 693885802#0 693885802#1 693885802#2 693885802#3 -295386152#0 -118575975#6 -118575975#5 -118575975#4 -118575975#3 -118575975#2 -118575975#1 828678742"/>
    </vehicle>
    <vehicle id="motorcycle99" type="motorcycle_motorcycle" depart="766.03" departLane="best">
        <route edges="295128790#1 295128790#2 295128790#5 295128790#6 295128790#7 295128790#8 295128790#9 295128790#10 693885804#1 693885804#1.60 693416739#0 693416739#0.11 693416739#1"/>
    </vehicle>
    <vehicle id="motorcycle100" type="motorcycle_motorcycle" depart="773.77" departLane="best" departSpeed="max">
        <route edges="-696756023 -295386152#7 -295386152#6 -295386152#4 -295386152#3 828678746"/>
    </vehicle>
    <vehicle id="motorcycle101" type="motorcycle_motorcycle" depart="781.51" departLane="best">
        <route edges="695025559 693885802#0 693885802#1 693885802#2 693885802#3 -295386152#0 -118575975#6 -118575975#5 -118575975#4 -118575975#3 -118575975#2 -118575975#1 828678742"/>
    </vehicle>
    <vehicle id="motorcycle102" type="motorcycle_motorcycle" depart="789.25" departLane="best">
        <route edges="694830397 694830397.22 695025562#1 695025559 693885802#0 693885802#1 693885802#2 693885802#3 -295386152#0 -118575975#6 -118575975#5 -118575975#4 -118575975#3 828678741#0"/>
    </vehicle>
    <vehicle id="motorcycle103" type="motorcycle_motorcycle" depart="796.98" departLane="best">
        <route edges="695025559 693885802#0 693885802#1 693885802#2 693885802#3 -295386152#0 -118575975#6 -118575975#5 -118575975#4 -118575975#3 -118575975#2 -118575975#1 -118575975#0 118575972#1"/>
    </vehicle>
    <vehicle id="motorcycle104" type="motorcycle_motorcycle" depart="804.72" departLane="best" departSpeed="max">
        <route edges="694830396 694830397 694830397.22 695025562#1 695025559 693885802#0 693885802#1 693885802#2 693885802#3 -295386152#0 295386152#1 295386152#2 295386152#3 295386152#4 295386152#6 295386152#7"/>
    </vehicle>
    <vehicle id="motorcycle105" type="motorcycle_motorcycle" depart="812.46" departLane="best" departSpeed="max">
        <route edges="-828678746 295386152#3 295386152#4 295386152#6 295386152#7 696756023"/>
    </vehicle>
    <vehicle id="motorcycle106" type="motorcycle_motorcycle" depart="820.20" departLane="best">
        <route edges="-295386152#2 -295386152#1 -118575975#6 -118575975#5"/>
    </vehicle>
    <vehicle id="motorcycle107" type="motorcycle_motorcycle" depart="827.93" departLane="best" departSpeed="max">