<?xml version="1.0" encoding="UTF-8"?>

<!-- generated on 2025-05-21 13:01:59.057282 by randomTrips.py v1_22_0+0002-63e50f52594
<configuration>
    <net-file value="osm.net.xml.gz"/>
    <output-trip-file value="osm.truck.trips.xml"/>
    <route-file value="osm.truck.rou.xml"/>
    <prefix value="truck"/>
    <trip-attributes value="departLane=&quot;best&quot;"/>
    <fringe-start-attributes value="departSpeed=&quot;max&quot;"/>
    <vehicle-class value="truck"/>
    <fringe-factor value="5"/>
    <vclass value="truck"/>
    <via-edge-types value="highway.motorway,highway.motorway_link,highway.trunk_link,highway.primary_link,highway.secondary_link,highway.tertiary_link"/>
    <min-distance value="600.0"/>
    <min-distance.fringe value="100.0"/>
    <remove-loops value="True"/>
    <validate value="True"/>
    <insertion-density value="80.0"/>
</configuration>
-->

<!-- generated on 2025-05-21 13:01:58 by Eclipse SUMO duarouter Version 1.22.0
<duarouterConfiguration xmlns:xsi="http://www.w3.org/2001/XMLSchema-instance" xsi:noNamespaceSchemaLocation="http://sumo.dlr.de/xsd/duarouterConfiguration.xsd">

    <input>
        <net-file value="osm.net.xml.gz"/>
        <route-files value="osm.truck.trips.xml"/>
    </input>

    <output>
        <output-file value="osm.truck.trips.xml.tmp"/>
        <alternatives-output value="NUL"/>
        <write-trips value="true"/>
    </output>

    <processing>
        <remove-loops value="true"/>
    </processing>

    <time>
        <begin value="0.0"/>
        <end value="3600.0"/>
    </time>

    <report>
        <no-warnings value="true"/>
        <ignore-errors value="true"/>
        <no-step-log value="true"/>
    </report>

</duarouterConfiguration>
-->

<routes xmlns:xsi="http://www.w3.org/2001/XMLSchema-instance" xsi:noNamespaceSchemaLocation="http://sumo.dlr.de/xsd/routes_file.xsd">
    <vType id="truck_truck" vClass="truck"/>
    <trip id="truck2" type="truck_truck" depart="7.89" departLane="best" departSpeed="max" from="695510006" to="693416739#1"/>
    <trip id="truck6" type="truck_truck" depart="23.66" departLane="best" departSpeed="max" from="-404718839" to="372467078#0"/>
    <trip id="truck7" type="truck_truck" depart="27.60" departLane="best" departSpeed="max" from="-404718839" to="118573606#12"/>
    <trip id="truck10" type="truck_truck" depart="39.43" departLane="best" from="828678749#0" to="693416739#1"/>
    <trip id="truck12" type="truck_truck" depart="47.32" departLane="best" from="695040102#0" to="693416739#1"/>
    <trip id="truck16" type="truck_truck" depart="63.09" departLane="best" departSpeed="max" from="689583179#0" to="118573606#12"/>
    <trip id="truck18" type="truck_truck" depart="70.98" departLane="best" from="689583179#4" to="372467078#0"/>
    <trip id="truck20" type="truck_truck" depart="78.86" departLane="best" departSpeed="max" from="-828678741#1" to="-372467078#0"/>
    <trip id="truck22" type="truck_truck" depart="86.75" departLane="best" departSpeed="max" from="-828678741#1" to="118573606#12"/>
    <trip id="truck23" type="truck_truck" depart="90.69" departLane="best" departSpeed="max" from="695510006" to="693416739#0.11"/>
    <trip id="truck26" type="truck_truck" depart="102.52" departLane="best" from="-118575972#2" to="372467078#1"/>
    <trip id="truck27" type="truck_truck" depart="106.47" departLane="best" from="689583179#2" to="372467078#1"/>
    <trip id="truck34" type="truck_truck" depart="134.07" departLane="best" from="118573606#0" to="693416739#1"/>
    <trip id="truck38" type="truck_truck" depart="149.84" departLane="best" from="118575975#0" to="-372467078#0"/>
    <trip id="truck42" type="truck_truck" depart="165.61" departLane="best" departSpeed="max" from="695510006" to="693416739#0"/>
    <trip id="truck43" type="truck_truck" depart="169.56" departLane="best" from="695040102#0" to="779462187#1.9"/>
    <trip id="truck47" type="truck_truck" depart="185.33" departLane="best" departSpeed="max" from="689583179#0" to="118573606#4"/>
    <trip id="truck48" type="truck_truck" depart="189.27" departLane="best" from="-295386152#7" to="E2"/>
    <trip id="truck50" type="truck_truck" depart="197.16" departLane="best" departSpeed="max" from="-295386152#8" to="693885804#1.60"/>
    <trip id="truck55" type="truck_truck" depart="216.88" departLane="best" departSpeed="max" from="689583179#0" to="-372467078#0"/>
    <trip id="truck56" type="truck_truck" depart="220.82" departLane="best" departSpeed="max" from="-696756023" to="E2"/>
    <trip id="truck62" type="truck_truck" depart="244.48" departLane="best" from="302739240#0" to="-372467078#0"/>
    <trip id="truck65" type="truck_truck" depart="256.31" departLane="best" departSpeed="max" from="689583179#0" to="408161670#9"/>
    <trip id="truck66" type="truck_truck" depart="260.25" departLane="best" from="693885802#0" to="-372467078#0"/>
    <trip id="truck68" type="truck_truck" depart="268.14" departLane="best" departSpeed="max" from="-696756023" to="779462187#1.9"/>
    <trip id="truck73" type="truck_truck" depart="287.85" departLane="best" departSpeed="max" from="-295386152#8" to="693416739#1"/>
    <trip id="truck74" type="truck_truck" depart="291.80" departLane="best" from="689583179#5" to="372467078#0"/>
    <trip id="truck83" type="truck_truck" depart="327.29" departLane="best" departSpeed="max" from="695510006" to="693416739#0"/>
    <trip id="truck84" type="truck_truck" depart="331.23" departLane="best" departSpeed="max" from="-295386152#8" to="35950897#3"/>
    <trip id="truck87" type="truck_truck" depart="343.06" departLane="best" from="693885802#0" to="118573606#12"/>
    <trip id="truck88" type="truck_truck" depart="347.00" departLane="best" departSpeed="max" from="-696756023" to="693416739#0.11"/>
    <trip id="truck90" type="truck_truck" depart="354.89" departLane="best" departSpeed="max" from="-696756023" to="693416739#1"/>
    <trip id="truck93" type="truck_truck" depart="366.72" departLane="best" from="828678749#0" to="693416739#1"/>
    <trip id="truck94" type="truck_truck" depart="370.66" departLane="best" from="118573606#0" to="35950897#2"/>
    <trip id="truck96" type="truck_truck" depart="378.55" departLane="best" from="689583179#1" to="-372467078#0"/>
    <trip id="truck98" type="truck_truck" depart="386.43" departLane="best" departSpeed="max" from="-696756023" to="693416739#0.11"/>
    <trip id="truck99" type="truck_truck" depart="390.38" departLane="best" departSpeed="max" from="118575972#0" to="-372467078#0"/>
    <trip id="truck100" type="truck_truck" depart="394.32" departLane="best" from="-295386152#7" to="693885804#1.60"/>
    <trip id="truck103" type="truck_truck" depart="406.15" departLane="best" departSpeed="max" from="118575972#0" to="118573606#12"/>
    <trip id="truck107" type="truck_truck" depart="421.92" departLane="best" departSpeed="max" from="-404718839" to="-372467078#0"/>
    <trip id="truck108" type="truck_truck" depart="425.87" departLane="best" from="693885802#0" to="-372467078#0"/>
    <trip id="truck112" type="truck_truck" depart="441.64" departLane="best" departSpeed="max" from="-295386152#8" to="693885804#1.60"/>
    <trip id="truck113" type="truck_truck" depart="445.58" departLane="best" from="295128790#2" to="779462187#1.9"/>
    <trip id="truck115" type="truck_truck" depart="453.47" departLane="best" from="693885802#0" to="-372467078#0"/>
    <trip id="truck124" type="truck_truck" depart="488.96" departLane="best" from="118573606#0" to="35950897#3"/>
    <trip id="truck125" type="truck_truck" depart="492.90" departLane="best" departSpeed="max" from="-828678743" to="779462187#1.9"/>
    <trip id="truck130" type="truck_truck" depart="512.62" departLane="best" departSpeed="max" from="-696756023" to="E4"/>
    <trip id="truck131" type="truck_truck" depart="516.56" departLane="best" from="295128790#2" to="693416739#1"/>
    <trip id="truck132" type="truck_truck" depart="520.50" departLane="best" departSpeed="max" from="695510006" to="1096471623#0"/>
    <trip id="truck133" type="truck_truck" depart="524.45" departLane="best" from="695040102#0" to="779462187#1.9"/>
    <trip id="truck135" type="truck_truck" depart="532.33" departLane="best" departSpeed="max" from="-696756023" to="779462187#1.9"/>
    <trip id="truck137" type="truck_truck" depart="540.22" departLane="best" departSpeed="max" from="-828678741#1" to="-372467078#0"/>
    <trip id="truck140" type="truck_truck" depart="552.05" departLane="best" departSpeed="max" from="-696756023" to="E4"/>
    <trip id="truck142" type="truck_truck" depart="559.94" departLane="best" departSpeed="max" from="-404718839" to="-828678745#0"/>
    <trip id="truck147" type="truck_truck" depart="579.65" departLane="best" departSpeed="max" from="118575972#0" to="695027208"/>
    <trip id="truck152" type="truck_truck" depart="599.37" departLane="best" from="689583179#4" to="-372467078#0"/>
    <trip id="truck155" type="truck_truck" depart="611.20" departLane="best" from="689583179#5" to="-372467078#0"/>
    <trip id="truck159" type="truck_truck" depart="626.97" departLane="best" departSpeed="max" from="698936203#0" to="35950897#3"/>
    <trip id="truck164" type="truck_truck" depart="646.69" departLane="best" from="828678749#0" to="35950897#3"/>
    <trip id="truck167" type="truck_truck" depart="658.52" departLane="best" departSpeed="max" from="689583179#0" to="118573606#8"/>
    <trip id="truck168" type="truck_truck" depart="662.46" departLane="best" from="689583179#1" to="-372467078#0"/>
    <trip id="truck169" type="truck_truck" depart="666.40" departLane="best" from="-295386152#7" to="693416739#1"/>
    <trip id="truck170" type="truck_truck" depart="670.35" departLane="best" departSpeed="max" from="-295386152#8" to="693416739#1"/>
    <trip id="truck174" type="truck_truck" depart="686.12" departLane="best" departSpeed="max" from="-828678742" to="118573606#12"/>
    <trip id="truck175" type="truck_truck" depart="690.06" departLane="best" departSpeed="max" from="-404718839" to="118573606#9"/>
    <trip id="truck179" type="truck_truck" depart="705.83" departLane="best" from="-295386152#6" to="779462187#1.9"/>
    <trip id="truck180" type="truck_truck" depart="709.78" departLane="best" departSpeed="max" from="695510006" to="693416739#1"/>
    <trip id="truck183" type="truck_truck" depart="721.61" departLane="best" from="689583179#1" to="408161670#12"/>
    <trip id="truck187" type="truck_truck" depart="737.38" departLane="best" departSpeed="max" from="-295386152#8" to="693885804#1.60"/>
    <trip id="truck189" type="truck_truck" depart="745.27" departLane="best" departSpeed="max" from="695510006" to="1096471623#0"/>
    <trip id="truck190" type="truck_truck" depart="749.21" departLane="best" departSpeed="max" from="698936203#0" to="35950897#3"/>
    <trip id="truck192" type="truck_truck" depart="757.10" departLane="best" departSpeed="max" from="-404718839" to="-372467078#0"/>
    <trip id="truck194" type="truck_truck" depart="764.98" departLane="best" from="689583179#2" to="372467078#1"/>
    <trip id="truck197" type="truck_truck" depart="776.81" departLane="best" from="302739240#0" to="118573606#8"/>
    <trip id="truck200" type="truck_truck" depart="788.64" departLane="best" departSpeed="max" from="118575972#0" to="-372467078#0"/>
    <trip id="truck202" type="truck_truck" depart="796.53" departLane="best" departSpeed="max" from="-295386152#8" to="693416739#0.11"/>
    <trip id="truck206" type="truck_truck" depart="812.30" departLane="best" from="-295386152#6" to="779462187#1.9"/>
    <trip id="truck207" type="truck_truck" depart="816.24" departLane="best" from="-118575972#2" to="118573606#10"/>
    <trip id="truck213" type="truck_truck" depart="839.90" departLane="best" departSpeed="max" from="-828678741#1" to="-372467078#0"/>
    <trip id="truck214" type="truck_truck" depart="843.85" departLane="best" departSpeed="max" from="-696756023" to="35950897#3"/>
    <trip id="truck217" type="truck_truck" depart="855.68" departLane="best" departSpeed="max" from="-295386152#8" to="693416739#1"/>
    <trip id="truck220" type="truck_truck" depart="867.51" departLane="best" departSpeed="max" from="-828678742" to="-372467078#0"/>
    <trip id="truck225" type="truck_truck" depart="887.22" departLane="best" from="118573606#0" to="695511482#4"/>
    <trip id="truck226" type="truck_truck" depart="891.16" departLane="best" from="-295386152#7" to="E4"/>
    <trip id="truck227" type="truck_truck" depart="895.11" departLane="best" departSpeed="max" from="-696756023" to="693885804#1"/>
    <trip id="truck228" type="truck_truck" depart="899.05" departLane="best" departSpeed="max" from="-404718839" to="372467078#0"/>
    <trip id="truck229" type="truck_truck" depart="902.99" departLane="best" departSpeed="max" from="-404718839" to="-372467078#0"/>
    <trip id="truck233" type="truck_truck" depart="918.77" departLane="best" from="-295386152#6" to="35950897#3"/>
    <trip id="truck239" type="truck_truck" depart="942.43" departLane="best" from="695025559" to="-372467078#0"/>
    <trip id="truck240" type="truck_truck" depart="946.37" departLane="best" departSpeed="max" from="-404718839" to="-372467078#0"/>
    <trip id="truck242" type="truck_truck" depart="954.26" departLane="best" departSpeed="max" from="-828678741#1" to="-372467078#0"/>
    <trip id="truck243" type="truck_truck" depart="958.20" departLane="best" from="-295386152#6" to="693416739#1"/>
    <trip id="truck248" type="truck_truck" depart="977.92" departLane="best" from="118573606#1" to="35950897#3"/>
    <trip id="truck250" type="truck_truck" depart="985.80" departLane="best" from="828678749#0" to="693416739#1"/>
    <trip id="truck251" type="truck_truck" depart="989.75" departLane="best" departSpeed="max" from="689583179#0" to="372467078#0"/>
    <trip id="truck252" type="truck_truck" depart="993.69" departLane="best" from="302739240#0" to="372467078#0"/>
    <trip id="truck254" type="truck_truck" depart="1001.57" departLane="best" from="295128790#2" to="693416739#1"/>
    <trip id="truck256" type="truck_truck" depart="1009.46" departLane="best" departSpeed="max" from="698936203#0" to="35950897#3"/>
    <trip id="truck258" type="truck_truck" depart="1017.35" departLane="best" departSpeed="max" from="-295386152#8" to="779462187#1.9"/>
    <trip id="truck259" type="truck_truck" depart="1021.29" departLane="best" from="689583179#1" to="372467078#1"/>
    <trip id="truck260" type="truck_truck" depart="1025.23" departLane="best" departSpeed="max" from="689583179#0" to="372467078#0"/>
    <trip id="truck261" type="truck_truck" depart="1029.18" departLane="best" departSpeed="max" from="-295386152#8" to="35950897#3"/>
    <trip id="truck266" type="truck_truck" depart="1048.89" departLane="best" from="-295386152#6" to="35950897#3"/>
    <trip id="truck267" type="truck_truck" depart="1052.84" departLane="best" departSpeed="max" from="-295386152#8" to="779462187#1.4"/>
    <trip id="truck268" type="truck_truck" depart="1056.78" departLane="best" from="689583179#1" to="-372467078#0"/>
    <trip id="truck271" type="truck_truck" depart="1068.61" departLane="best" from="118573606#1" to="693885804#1"/>
    <trip id="truck272" type="truck_truck" depart="1072.55" departLane="best" from="689583179#1" to="408161670#11"/>
    <trip id="truck273" type="truck_truck" depart="1076.50" departLane="best" departSpeed="max" from="695510006" to="693416739#1"/>
    <trip id="truck274" type="truck_truck" depart="1080.44" departLane="best" departSpeed="max" from="-295386152#8" to="35950897#3"/>
    <trip id="truck275" type="truck_truck" depart="1084.38" departLane="best" from="689583179#5" to="-372467078#0"/>
    <trip id="truck276" type="truck_truck" depart="1088.33" departLane="best" departSpeed="max" from="-295386152#8" to="779462187#1.9"/>
    <trip id="truck278" type="truck_truck" depart="1096.21" departLane="best" departSpeed="max" from="-696756023" to="1096471623#0"/>
    <trip id="truck279" type="truck_truck" depart="1100.15" departLane="best" departSpeed="max" from="-404718839" to="118573606#10"/>
    <trip id="truck281" type="truck_truck" depart="1108.04" departLane="best" departSpeed="max" from="-696756023" to="779462187#1.9"/>
    <trip id="truck282" type="truck_truck" depart="1111.98" departLane="best" from="302739240#0" to="118573606#9"/>
    <trip id="truck283" type="truck_truck" depart="1115.93" departLane="best" departSpeed="max" from="695510006" to="693416739#1"/>
    <trip id="truck285" type="truck_truck" depart="1123.81" departLane="best" departSpeed="max" from="-295386152#8" to="779462187#1.9"/>
    <trip id="truck292" type="truck_truck" depart="1151.42" departLane="best" departSpeed="max" from="689583179#0" to="-372467078#0"/>
    <trip id="truck293" type="truck_truck" depart="1155.36" departLane="best" departSpeed="max" from="695510006" to="779462187#1.9"/>
    <trip id="truck295" type="truck_truck" depart="1163.25" departLane="best" departSpeed="max" from="689583179#0" to="118573606#8"/>
    <trip id="truck297" type="truck_truck" depart="1171.13" departLane="best" from="-295386152#7" to="35950897#3"/>
    <trip id="truck299" type="truck_truck" depart="1179.02" departLane="best" departSpeed="max" from="-696756023" to="35950897#3"/>
    <trip id="truck300" type="truck_truck" depart="1182.96" departLane="best" departSpeed="max" from="118575972#0" to="-372467078#0"/>
    <trip id="truck303" type="truck_truck" depart="1194.79" departLane="best" from="-295386152#6" to="35950897#3"/>
    <trip id="truck305" type="truck_truck" depart="1202.68" departLane="best" departSpeed="max" from="-404718839" to="118573606#8"/>
    <trip id="truck309" type="truck_truck" depart="1218.45" departLane="best" departSpeed="max" from="-295386152#8" to="E2"/>
    <trip id="truck310" type="truck_truck" depart="1222.39" departLane="best" departSpeed="max" from="-404718839" to="118573606#12"/>
    <trip id="truck312" type="truck_truck" depart="1230.28" departLane="best" departSpeed="max" from="-828678742" to="-372467078#0"/>
    <trip id="truck316" type="truck_truck" depart="1246.05" departLane="best" departSpeed="max" from="698936203#0" to="35950897#3"/>
    <trip id="truck317" type="truck_truck" depart="1250.00" departLane="best" from="118573606#1" to="779462187#1.9"/>
    <trip id="truck319" type="truck_truck" depart="1257.88" departLane="best" from="118573606#1" to="779462187#1.9"/>
    <trip id="truck321" type="truck_truck" depart="1265.77" departLane="best" departSpeed="max" from="-295386152#8" to="693416739#1"/>
    <trip id="truck327" type="truck_truck" depart="1289.43" departLane="best" departSpeed="max" from="118575972#0" to="118573606#12"/>
    <trip id="truck328" type="truck_truck" depart="1293.37" departLane="best" from="295128790#1" to="693885804#1.60"/>
    <trip id="truck331" type="truck_truck" depart="1305.20" departLane="best" departSpeed="max" from="-404718839" to="118573606#12"/>
    <trip id="truck335" type="truck_truck" depart="1320.97" departLane="best" departSpeed="max" from="698936203#0" to="35950897#3"/>
    <trip id="truck336" type="truck_truck" depart="1324.92" departLane="best" departSpeed="max" from="695510006" to="779462187#1.9"/>
    <trip id="truck337" type="truck_truck" depart="1328.86" departLane="best" departSpeed="max" from="-404718839" to="-372467078#1"/>
    <trip id="truck338" type="truck_truck" depart="1332.80" departLane="best" departSpeed="max" from="-295386152#8" to="693416739#1"/>
    <trip id="truck339" type="truck_truck" depart="1336.75" departLane="best" departSpeed="max" from="-696756023" to="693416739#1"/>
    <trip id="truck340" type="truck_truck" depart="1340.69" departLane="best" from="828678749#0" to="779462187#1.9"/>
    <trip id="truck345" type="truck_truck" depart="1360.41" departLane="best" from="-118575972#2" to="372467078#1"/>
    <trip id="truck355" type="truck_truck" depart="1399.84" departLane="best" from="-295386152#6" to="779462187#1.9"/>
    <trip id="truck356" type="truck_truck" depart="1403.78" departLane="best" from="-295386152#4" to="779462187#1.9"/>
    <trip id="truck357" type="truck_truck" depart="1407.73" departLane="best" from="-295386152#7" to="E2"/>
    <trip id="truck360" type="truck_truck" depart="1419.55" departLane="best" departSpeed="max" from="118575972#0" to="-372467078#0"/>
    <trip id="truck361" type="truck_truck" depart="1423.50" departLane="best" departSpeed="max" from="-295386152#8" to="695511482#4"/>
    <trip id="truck362" type="truck_truck" depart="1427.44" departLane="best" departSpeed="max" from="-828678742" to="-372467078#0"/>
    <trip id="truck365" type="truck_truck" depart="1439.27" departLane="best" from="295128790#2" to="779462187#1.9"/>
    <trip id="truck375" type="truck_truck" depart="1478.70" departLane="best" departSpeed="max" from="-295386152#8" to="693416739#1"/>
    <trip id="truck376" type="truck_truck" depart="1482.65" departLane="best" departSpeed="max" from="-404718839" to="-372467078#0"/>
    <trip id="truck384" type="truck_truck" depart="1514.19" departLane="best" from="-118575972#2" to="118573606#6"/>
    <trip id="truck391" type="truck_truck" depart="1541.79" departLane="best" departSpeed="max" from="-828678741#1" to="-372467078#0"/>
    <trip id="truck393" type="truck_truck" depart="1549.68" departLane="best" departSpeed="max" from="-828678741#1" to="-372467078#0"/>
    <trip id="truck395" type="truck_truck" depart="1557.57" departLane="best" departSpeed="max" from="-696756023" to="695511482#4"/>
    <trip id="truck396" type="truck_truck" depart="1561.51" departLane="best" from="118575975#0" to="372467078#0"/>
    <trip id="truck398" type="truck_truck" depart="1569.40" departLane="best" departSpeed="max" from="695510006" to="779462187#1.9"/>
    <trip id="truck402" type="truck_truck" depart="1585.17" departLane="best" departSpeed="max" from="-696756023" to="693416739#0.11"/>
    <trip id="truck407" type="truck_truck" depart="1604.89" departLane="best" from="695040102#1" to="779462187#1.9"/>
    <trip id="truck409" type="truck_truck" depart="1612.77" departLane="best" from="118573606#0" to="35950897#2"/>
    <trip id="truck416" type="truck_truck" depart="1640.37" departLane="best" from="695025559" to="118573606#10"/>
    <trip id="truck417" type="truck_truck" depart="1644.32" departLane="best" from="-295386152#7" to="693416739#1"/>
    <trip id="truck422" type="truck_truck" depart="1664.03" departLane="best" departSpeed="max" from="-696756023" to="693416739#1"/>
    <trip id="truck425" type="truck_truck" depart="1675.86" departLane="best" departSpeed="max" from="-696756023" to="1096471623#0"/>
    <trip id="truck426" type="truck_truck" depart="1679.81" departLane="best" from="689583179#2" to="372467078#1"/>
    <trip id="truck428" type="truck_truck" depart="1687.69" departLane="best" from="-295386152#6" to="695511482#4"/>
    <trip id="truck429" type="truck_truck" depart="1691.64" departLane="best" from="689583179#1" to="408161670#10"/>
    <trip id="truck433" type="truck_truck" depart="1707.41" departLane="best" from="-118575972#2" to="118573606#9"/>
    <trip id="truck436" type="truck_truck" depart="1719.24" departLane="best" departSpeed="max" from="-696756023" to="35950897#3"/>
    <trip id="truck439" type="truck_truck" depart="1731.07" departLane="best" departSpeed="max" from="-295386152#8" to="693416739#1"/>
    <trip id="truck441" type="truck_truck" depart="1738.95" departLane="best" departSpeed="max" from="695510006" to="693885804#1"/>
    <trip id="truck447" type="truck_truck" depart="1762.61" departLane="best" departSpeed="max" from="695510006" to="779462187#1.4"/>
    <trip id="truck448" type="truck_truck" depart="1766.56" departLane="best" from="689583179#5" to="-372467078#0"/>
    <trip id="truck449" type="truck_truck" depart="1770.50" departLane="best" departSpeed="max" from="-696756023" to="693416739#1"/>
    <trip id="truck451" type="truck_truck" depart="1778.39" departLane="best" from="118573606#0" to="693416739#1"/>
    <trip id="truck456" type="truck_truck" depart="1798.10" departLane="best" departSpeed="max" from="689583179#0" to="372467078#0"/>
    <trip id="truck469" type="truck_truck" depart="1849.36" departLane="best" departSpeed="max" from="-295386152#8" to="693416739#1"/>
    <trip id="truck470" type="truck_truck" depart="1853.31" departLane="best" from="-118575972#2" to="372467078#1"/>
    <trip id="truck473" type="truck_truck" depart="1865.14" departLane="best" departSpeed="max" from="-295386152#8" to="693416739#1"/>
    <trip id="truck477" type="truck_truck" depart="1880.91" departLane="best" departSpeed="max" from="-696756023" to="693416739#0"/>
    <trip id="truck480" type="truck_truck" depart="1892.74" departLane="best" departSpeed="max" from="689583179#0" to="-372467078#1"/>
    <trip id="truck481" type="truck_truck" depart="1896.68" departLane="best" departSpeed="max" from="698936203#0" to="35950897#3"/>
    <trip id="truck483" type="truck_truck" depart="1904.57" departLane="best" departSpeed="max" from="-828678742" to="118573606#12"/>
    <trip id="truck488" type="truck_truck" depart="1924.29" departLane="best" from="689583179#1" to="118573606#10"/>
    <trip id="truck493" type="truck_truck" depart="1944.00" departLane="best" departSpeed="max" from="-696756023" to="779462187#1.9"/>
    <trip id="truck495" type="truck_truck" depart="1951.89" departLane="best" departSpeed="max" from="-404718839" to="-372467078#0"/>
    <trip id="truck496" type="truck_truck" depart="1955.83" departLane="best" departSpeed="max" from="689583179#0" to="408161670#10"/>
    <trip id="truck497" type="truck_truck" depart="1959.77" departLane="best" departSpeed="max" from="118575972#0" to="372467078#0"/>
    <trip id="truck499" type="truck_truck" depart="1967.66" departLane="best" departSpeed="max" from="-828678741#1" to="-372467078#0"/>
    <trip id="truck500" type="truck_truck" depart="1971.60" departLane="best" departSpeed="max" from="-404718839" to="372467078#0"/>
    <trip id="truck503" type="truck_truck" depart="1983.43" departLane="best" departSpeed="max" from="-696756023" to="35950897#3"/>
    <trip id="truck506" type="truck_truck" depart="1995.26" departLane="best" from="118575972#1" to="372467078#1"/>
    <trip id="truck507" type="truck_truck" depart="1999.21" departLane="best" from="828678749#0" to="35950897#3"/>
    <trip id="truck508" type="truck_truck" depart="2003.15" departLane="best" departSpeed="max" from="695510006" to="693416739#0.11"/>
    <trip id="truck509" type="truck_truck" depart="2007.09" departLane="best" from="295386152#6" to="779462187#1.9"/>
    <trip id="truck511" type="truck_truck" depart="2014.98" departLane="best" departSpeed="max" from="695510006" to="693416739#0.11"/>
    <trip id="truck515" type="truck_truck" depart="2030.75" departLane="best" departSpeed="max" from="695510006" to="693416739#1"/>
    <trip id="truck519" type="truck_truck" depart="2046.52" departLane="best" departSpeed="max" from="-295386152#8" to="779462187#1.9"/>
    <trip id="truck520" type="truck_truck" depart="2050.47" departLane="best" departSpeed="max" from="689583179#0" to="118573606#6"/>
    <trip id="truck523" type="truck_truck" depart="2062.30" departLane="best" departSpeed="max" from="689583179#0" to="-372467078#0"/>
    <trip id="truck525" type="truck_truck" depart="2070.18" departLane="best" departSpeed="max" from="689583179#0" to="372467078#1"/>
    <trip id="truck529" type="truck_truck" depart="2085.96" departLane="best" departSpeed="max" from="695510006" to="693416739#0.11"/>
    <trip id="truck532" type="truck_truck" depart="2097.79" departLane="best" departSpeed="max" from="-295386152#8" to="779462187#1.9"/>
    <trip id="truck534" type="truck_truck" depart="2105.67" departLane="best" departSpeed="max" from="689583179#0" to="118573606#9"/>
    <trip id="truck536" type="truck_truck" depart="2113.56" departLane="best" from="828678749#0" to="693885804#1.60"/>
    <trip id="truck537" type="truck_truck" depart="2117.50" departLane="best" departSpeed="max" from="695510006" to="779462187#1.9"/>
    <trip id="truck538" type="truck_truck" depart="2121.45" departLane="best" from="689583179#2" to="-372467078#0"/>
    <trip id="truck539" type="truck_truck" depart="2125.39" departLane="best" departSpeed="max" from="689583179#0" to="-372467078#0"/>
    <trip id="truck553" type="truck_truck" depart="2180.59" departLane="best" from="695040102#0" to="779462187#1.9"/>
    <trip id="truck554" type="truck_truck" depart="2184.54" departLane="best" departSpeed="max" from="-696756023" to="693416739#1"/>
    <trip id="truck555" type="truck_truck" depart="2188.48" departLane="best" departSpeed="max" from="118575972#0" to="-372467078#1"/>
    <trip id="truck557" type="truck_truck" depart="2196.37" departLane="best" departSpeed="max" from="-828678741#1" to="-372467078#0"/>
    <trip id="truck560" type="truck_truck" depart="2208.20" departLane="best" from="-295386152#6" to="693885804#1.60"/>
    <trip id="truck563" type="truck_truck" depart="2220.03" departLane="best" from="693885802#0" to="-372467078#0"/>
    <trip id="truck564" type="truck_truck" depart="2223.97" departLane="best" departSpeed="max" from="-828678742" to="-372467078#0"/>
    <trip id="truck565" type="truck_truck" depart="2227.91" departLane="best" from="689583179#4" to="118573606#9"/>
    <trip id="truck572" type="truck_truck" depart="2255.51" departLane="best" from="118575972#1" to="-372467078#0"/>
    <trip id="truck573" type="truck_truck" depart="2259.46" departLane="best" from="118573606#0" to="695511482#4"/>
    <trip id="truck574" type="truck_truck" depart="2263.40" departLane="best" from="828678749#0" to="693416739#1"/>
    <trip id="truck575" type="truck_truck" depart="2267.34" departLane="best" departSpeed="max" from="118575972#0" to="-372467078#0"/>
    <trip id="truck576" type="truck_truck" depart="2271.29" departLane="best" departSpeed="max" from="-828678741#1" to="-372467078#0"/>
    <trip id="truck577" type="truck_truck" depart="2275.23" departLane="best" from="118575972#1" to="118573606#9"/>