<?xml version="1.0" encoding="UTF-8"?>

<!-- generated on 2025-06-17 11:36:43.050792 by randomTrips.py v1_22_0+0002-63e50f52594
<configuration>
    <net-file value="osm.net.xml.gz"/>
    <output-trip-file value="osm.pedestrian.trips.xml"/>
    <route-file value="osm.pedestrian.rou.xml"/>
    <pedestrians value="True"/>
    <prefix value="ped"/>
    <vehicle-class value="pedestrian"/>
    <fringe-factor value="1"/>
    <max-distance value="2000.0"/>
    <insertion-density value="100.0"/>
</configuration>
-->

<routes xmlns:xsi="http://www.w3.org/2001/XMLSchema-instance" xsi:noNamespaceSchemaLocation="http://sumo.dlr.de/xsd/routes_file.xsd">
    <vType id="ped_pedestrian" vClass="pedestrian"/>
    <person id="ped0" depart="0.00" type="ped_pedestrian">
        <walk from="372469387#0" to="-295386175#2"/>
    </person>
    <person id="ped1" depart="5.26" type="ped_pedestrian">
        <walk from="-931369479#0" to="-828678849"/>
    </person>
    <person id="ped2" depart="10.53" type="ped_pedestrian">
        <walk from="694830398#3" to="642035206"/>
    </person>
    <person id="ped3" depart="15.79" type="ped_pedestrian">
        <walk from="779462187#1.9" to="-642035207#0"/>
    </person>
    <person id="ped4" depart="21.06" type="ped_pedestrian">
        <walk from="1254909512#4" to="-372468201#0"/>
    </person>
    <person id="ped5" depart="26.32" type="ped_pedestrian">
        <walk from="-828678845" to="1380613829#0"/>
    </person>
    <person id="ped6" depart="31.59" type="ped_pedestrian">
        <walk from="-295386175#2" to="-695691451"/>
    </person>
    <person id="ped7" depart="36.85" type="ped_pedestrian">
        <walk from="372469387#1" to="1384907062#6"/>
    </person>
    <person id="ped8" depart="42.12" type="ped_pedestrian">
        <walk from="-828678845" to="295386163"/>
    </person>
    <person id="ped9" depart="47.38" type="ped_pedestrian">
        <walk from="695040107#2" to="-1199455963"/>
    </person>
    <person id="ped10" depart="52.64" type="ped_pedestrian">
        <walk from="695040107#2" to="642035208#1"/>
    </person>
    <person id="ped11" depart="57.91" type="ped_pedestrian">
        <walk from="1204196247#1" to="-695040107#3"/>
    </person>
    <person id="ped12" depart="63.17" type="ped_pedestrian">
        <walk from="931369479#0" to="1204196247#0"/>
    </person>
    <person id="ped13" depart="68.44" type="ped_pedestrian">
        <walk from="-642035207#1" to="-642035208#0"/>
    </person>
    <person id="ped14" depart="73.70" type="ped_pedestrian">
        <walk from="695691448" to="295386168"/>
    </person>
    <person id="ped15" depart="78.97" type="ped_pedestrian">
        <walk from="695040107#2" to="694830397.22"/>
    </person>
    <person id="ped16" depart="84.23" type="ped_pedestrian">
        <walk from="1384907062#4" to="931369479#3"/>
    </person>
    <person id="ped17" depart="89.50" type="ped_pedestrian">
        <walk from="1204196250#0" to="1384907062#7"/>
    </person>
    <person id="ped18" depart="94.76" type="ped_pedestrian">
        <walk from="695512891" to="295386175#2"/>
    </person>
    <person id="ped19" depart="100.02" type="ped_pedestrian">
        <walk from="695691451" to="295386160"/>
    </person>
    <person id="ped20" depart="105.29" type="ped_pedestrian">
        <walk from="642067357#0" to="-372469387#0"/>
    </person>
    <person id="ped21" depart="110.55" type="ped_pedestrian">
        <walk from="-828678850#1" to="-931369479#3"/>
    </person>
    <person id="ped22" depart="115.82" type="ped_pedestrian">
        <walk from="-642035206" to="-828678850#1"/>
    </person>
    <person id="ped23" depart="121.08" type="ped_pedestrian">
        <walk from="-642035208#1" to="-931369479#1"/>
    </person>
    <person id="ped24" depart="126.35" type="ped_pedestrian">
        <walk from="372468201#2" to="1204196249#2"/>
    </person>
    <person id="ped25" depart="131.61" type="ped_pedestrian">
        <walk from="1204196249#3" to="-695691453"/>
    </person>
    <person id="ped26" depart="136.88" type="ped_pedestrian">
        <walk from="-931369478" to="828678899"/>
    </person>
    <person id="ped27" depart="142.14" type="ped_pedestrian">
        <walk from="372469387#1" to="295386175#0"/>
    </person>
    <person id="ped28" depart="147.40" type="ped_pedestrian">
        <walk from="-695512891" to="694830397.22"/>
    </person>
    <person id="ped29" depart="152.67" type="ped_pedestrian">
        <walk from="-695511483" to="1204196250#0"/>
    </person>
    <person id="ped30" depart="157.93" type="ped_pedestrian">
        <walk from="E2" to="372469387#0"/>
    </person>
    <person id="ped31" depart="163.20" type="ped_pedestrian">
        <walk from="295128790#10" to="642035207#1"/>
    </person>
    <person id="ped32" depart="168.46" type="ped_pedestrian">
        <walk from="695673446#0" to="695027209#1"/>
    </person>
    <person id="ped33" depart="173.73" type="ped_pedestrian">
        <walk from="-828678850#1" to="-372468201#0"/>
    </person>
    <person id="ped34" depart="178.99" type="ped_pedestrian">
        <walk from="1204196244#1" to="-931369478"/>
    </person>
    <person id="ped35" depart="184.26" type="ped_pedestrian">
        <walk from="-695691453" to="828678900"/>
    </person>
    <person id="ped36" depart="189.52" type="ped_pedestrian">
        <walk from="695691453" to="1204196244#1"/>
    </person>
    <person id="ped37" depart="194.78" type="ped_pedestrian">
        <walk from="372469388#1" to="1204196251#1"/>
    </person>
    <person id="ped38" depart="200.05" type="ped_pedestrian">
        <walk from="828678895" to="1254909515#0"/>
    </person>
    <person id="ped39" depart="205.31" type="ped_pedestrian">
        <walk from="-828678900" to="-828678896"/>
    </person>
    <person id="ped40" depart="210.58" type="ped_pedestrian">
        <walk from="295128797" to="-828678900"/>
    </person>
    <person id="ped41" depart="215.84" type="ped_pedestrian">
        <walk from="295386162" to="828678849"/>
    </person>
    <person id="ped42" depart="221.11" type="ped_pedestrian">
        <walk from="1204196251#1" to="-828678845"/>
    </person>
    <person id="ped43" depart="226.37" type="ped_pedestrian">
        <walk from="E3" to="1380613829#1"/>
    </person>
    <person id="ped44" depart="231.64" type="ped_pedestrian">
        <walk from="-642035207#1" to="-372469387#0"/>
    </person>
    <person id="ped45" depart="236.90" type="ped_pedestrian">
        <walk from="-642067357#0" to="372468201#0"/>
    </person>
    <person id="ped46" depart="242.17" type="ped_pedestrian">
        <walk from="695040103" to="1254909512#4"/>
    </person>
    <person id="ped47" depart="247.43" type="ped_pedestrian">
        <walk from="-372469389#0" to="1204196250#0"/>
    </person>
    <person id="ped48" depart="252.69" type="ped_pedestrian">
        <walk from="E3" to="1384907062#3"/>
    </person>
    <person id="ped49" depart="257.96" type="ped_pedestrian">
        <walk from="931369479#2" to="695691450"/>
    </person>
    <person id="ped50" depart="263.22" type="ped_pedestrian">
        <walk from="-295386175#0" to="693885804#1.60"/>
    </person>
    <person id="ped51" depart="268.49" type="ped_pedestrian">
        <walk from="642035207#0" to="1384907062#4"/>
    </person>
    <person id="ped52" depart="273.75" type="ped_pedestrian">
        <walk from="-931369478" to="372469387#0"/>
    </person>
    <person id="ped53" depart="279.02" type="ped_pedestrian">
        <walk from="-695027206" to="1254909513#1"/>
    </person>
    <person id="ped54" depart="284.28" type="ped_pedestrian">
        <walk from="1254909514#1" to="931369478"/>
    </person>
    <person id="ped55" depart="289.55" type="ped_pedestrian">
        <walk from="695691453" to="-828678900"/>
    </person>
    <person id="ped56" depart="294.81" type="ped_pedestrian">
        <walk from="1380613829#0" to="-695673446#0"/>
    </person>
    <person id="ped57" depart="300.07" type="ped_pedestrian">
        <walk from="828678895" to="695691452"/>
    </person>
    <person id="ped58" depart="305.34" type="ped_pedestrian">
        <walk from="1192334146#0" to="372469387#0"/>
    </person>
    <person id="ped59" depart="310.60" type="ped_pedestrian">
        <walk from="295386175#0" to="-695040107#3"/>
    </person>
    <person id="ped60" depart="315.87" type="ped_pedestrian">
        <walk from="695027207" to="1384907062#5"/>
    </person>
    <person id="ped61" depart="321.13" type="ped_pedestrian">
        <walk from="695033472#2" to="1384907062#3"/>
    </person>
    <person id="ped62" depart="326.40" type="ped_pedestrian">
        <walk from="-1192334146#0" to="1204196246#0"/>
    </person>
    <person id="ped63" depart="331.66" type="ped_pedestrian">
        <walk from="-295386175#1" to="828678898"/>
    </person>
    <person id="ped64" depart="336.93" type="ped_pedestrian">
        <walk from="695691454#0" to="695512891"/>
    </person>
    <person id="ped65" depart="342.19" type="ped_pedestrian">
        <walk from="1204196244#0" to="-372469388#1"/>
    </person>
    <person id="ped66" depart="347.45" type="ped_pedestrian">
        <walk from="695691454#0" to="866578174"/>
    </person>
    <person id="ped67" depart="352.72" type="ped_pedestrian">
        <walk from="-642035207#0" to="1254909516#1"/>
    </person>
    <person id="ped68" depart="357.98" type="ped_pedestrian">
        <walk from="-372469394" to="695027206"/>
    </person>
    <person id="ped69" depart="363.25" type="ped_pedestrian">
        <walk from="695027207" to="-695040103"/>
    </person>
    <person id="ped70" depart="368.51" type="ped_pedestrian">
        <walk from="1254909515#3" to="1384907062#6"/>
    </person>
    <person id="ped71" depart="373.78" type="ped_pedestrian">
        <walk from="-828678900" to="695691453"/>
    </person>
    <person id="ped72" depart="379.04" type="ped_pedestrian">
        <walk from="1254909512#5" to="-695691454#0"/>
    </person>
    <person id="ped73" depart="384.31" type="ped_pedestrian">
        <walk from="1384907062#5" to="694830397.22"/>
    </person>
    <person id="ped74" depart="389.57" type="ped_pedestrian">
        <walk from="-695691452" to="1204196244#1"/>
    </person>
    <person id="ped75" depart="394.83" type="ped_pedestrian">
        <walk from="E3" to="372469387#1"/>
    </person>
    <person id="ped76" depart="400.10" type="ped_pedestrian">
        <walk from="1254909513#1" to="1384907062#1"/>
    </person>
    <person id="ped77" depart="405.36" type="ped_pedestrian">
        <walk from="-695027207" to="-828678849"/>
    </person>
    <person id="ped78" depart="410.63" type="ped_pedestrian">
        <walk from="1204196247#0" to="295386162"/>
    </person>
    <person id="ped79" depart="415.89" type="ped_pedestrian">
        <walk from="-828678850#1" to="-828678845"/>
    </person>
    <person id="ped80" depart="421.16" type="ped_pedestrian">
        <walk from="-372469394" to="372468201#1"/>
    </person>
    <person id="ped81" depart="426.42" type="ped_pedestrian">
        <walk from="-828678850#1" to="828678850#1"/>
    </person>
    <person id="ped82" depart="431.69" type="ped_pedestrian">
        <walk from="695691450" to="-372469394"/>
    </person>
    <person id="ped83" depart="436.95" type="ped_pedestrian">
        <walk from="-828678854#2" to="641423229"/>
    </person>
    <person id="ped84" depart="442.21" type="ped_pedestrian">
        <walk from="-695691454#0" to="-695040103"/>
    </person>
    <person id="ped85" depart="447.48" type="ped_pedestrian">
        <walk from="828678899" to="295386159"/>
    </person>
    <person id="ped86" depart="452.74" type="ped_pedestrian">
        <walk from="1254909515#3" to="695033473"/>
    </person>
    <person id="ped87" depart="458.01" type="ped_pedestrian">
        <walk from="695040107#2" to="-695691449"/>
    </person>
    <person id="ped88" depart="463.27" type="ped_pedestrian">
        <walk from="-642035208#0" to="1254909513#0"/>
    </person>
    <person id="ped89" depart="468.54" type="ped_pedestrian">
        <walk from="1254909512#5" to="1254909515#2"/>
    </person>
    <person id="ped90" depart="473.80" type="ped_pedestrian">
        <walk from="694830397.22" to="642035206"/>
    </person>
    <person id="ped91" depart="479.07" type="ped_pedestrian">
        <walk from="E1" to="-642035208#0"/>
    </person>
    <person id="ped92" depart="484.33" type="ped_pedestrian">
        <walk from="1254909512#1" to="1204196247#1"/>
    </person>
    <person id="ped93" depart="489.59" type="ped_pedestrian">
        <walk from="695691451" to="-828678896"/>
    </person>
    <person id="ped94" depart="494.86" type="ped_pedestrian">
        <walk from="-695691449" to="1254909514#0"/>
    </person>
    <person id="ped95" depart="500.12" type="ped_pedestrian">
        <walk from="1254909512#4" to="-931369479#1"/>
    </person>
    <person id="ped96" depart="505.39" type="ped_pedestrian">
        <walk from="-828678896" to="828678897"/>
    </person>
    <person id="ped97" depart="510.65" type="ped_pedestrian">
        <walk from="1254909513#2" to="695691451"/>
    </person>
    <person id="ped98" depart="515.92" type="ped_pedestrian">
        <walk from="1384907062#7" to="-372469387#1"/>
    </person>
    <person id="ped99" depart="521.18" type="ped_pedestrian">
        <walk from="E3" to="695668721#0"/>
    </person>
    <person id="ped100" depart="526.45" type="ped_pedestrian">
        <walk from="931369479#2" to="828678897"/>
    </person>
    <person id="ped101" depart="531.71" type="ped_pedestrian">
        <walk from="695691448" to="-695511483"/>
    </person>
    <person id="ped102" depart="536.97" type="ped_pedestrian">
        <walk from="1254909516#1" to="-695691454#0"/>
    </person>
    <person id="ped103" depart="542.24" type="ped_pedestrian">
        <walk from="1254909512#1" to="-372469388#1"/>
    </person>
    <person id="ped104" depart="547.50" type="ped_pedestrian">
        <walk from="1204196250#0" to="E1"/>
    </person>
    <person id="ped105" depart="552.77" type="ped_pedestrian">
        <walk from="-828678900" to="695033473"/>
    </person>
    <person id="ped106" depart="558.03" type="ped_pedestrian">
        <walk from="1254909514#1" to="1254909512#5"/>
    </person>
    <person id="ped107" depart="563.30" type="ped_pedestrian">
        <walk from="931369479#0" to="E3"/>
    </person>
    <person id="ped108" depart="568.56" type="ped_pedestrian">
        <walk from="295128790#10" to="693885804#1.60"/>
    </person>
    <person id="ped109" depart="573.83" type="ped_pedestrian">
        <walk from="-695040107#3" to="1192334146#0"/>
    </person>
    <person id="ped110" depart="579.09" type="ped_pedestrian">
        <walk from="931369479#2" to="295386161"/>
    </person>
    <person id="ped111" depart="584.35" type="ped_pedestrian">
        <walk from="1384907062#5" to="695025561"/>
    </person>
    <person id="ped112" depart="589.62" type="ped_pedestrian">
        <walk from="-372469388#1" to="295386162"/>
    </person>
    <person id="ped113" depart="594.88" type="ped_pedestrian">
        <walk from="1380613829#0" to="695691449"/>
    </person>
    <person id="ped114" depart="600.15" type="ped_pedestrian">
        <walk from="-695510004" to="931369479#0"/>
    </person>
    <person id="ped115" depart="605.41" type="ped_pedestrian">
        <walk from="-642035206" to="-695691448"/>
    </person>
    <person id="ped116" depart="610.68" type="ped_pedestrian">
        <walk from="295386166" to="642035206"/>
    </person>
    <person id="ped117" depart="615.94" type="ped_pedestrian">
        <walk from="-828678854#2" to="-695027207"/>
    </person>
    <person id="ped118" depart="621.21" type="ped_pedestrian">
        <walk from="779462187#1.9" to="-828678896"/>
    </person>
    <person id="ped119" depart="626.47" type="ped_pedestrian">
        <walk from="295386166" to="295386175#2"/>
    </person>
    <person id="ped120" depart="631.74" type="ped_pedestrian">
        <walk from="1254909512#4" to="295386162"/>
    </person>
    <person id="ped121" depart="637.00" type="ped_pedestrian">
        <walk from="1384907062#2" to="828678899"/>
    </person>
    <person id="ped122" depart="642.26" type="ped_pedestrian">
        <walk from="-695691452" to="693416739#0.11"/>
    </person>
    <person id="ped123" depart="647.53" type="ped_pedestrian">
        <walk from="-828678854#2" to="1204196251#1"/>
    </person>
    <person id="ped124" depart="652.79" type="ped_pedestrian">
        <walk from="641423229" to="1192334146#0"/>
    </person>
    <person id="ped125" depart="658.06" type="ped_pedestrian">
        <walk from="1204196244#1" to="695025562#1"/>
    </person>
    <person id="ped126" depart="663.32" type="ped_pedestrian">
        <walk from="-641423229" to="1254909515#0"/>
    </person>
    <person id="ped127" depart="668.59" type="ped_pedestrian">
        <walk from="E3" to="E3"/>
    </person>
    <person id="ped128" depart="673.85" type="ped_pedestrian">
        <walk from="-641423229" to="-695691454#0"/>
    </person>
    <person id="ped129" depart="679.12" type="ped_pedestrian">
        <walk from="-828678900" to="828678898"/>
    </person>
    <person id="ped130" depart="684.38" type="ped_pedestrian">
        <walk from="695691454#0" to="695691454#0"/>
    </person>
    <person id="ped131" depart="689.64" type="ped_pedestrian">
        <walk from="1204196249#3" to="-695510004"/>
    </person>
    <person id="ped132" depart="694.91" type="ped_pedestrian">
        <walk from="695668721#0" to="642067357#0"/>
    </person>
    <person id="ped133" depart="700.17" type="ped_pedestrian">
        <walk from="295386175#1" to="E1"/>
    </person>
    <person id="ped134" depart="705.44" type="ped_pedestrian">
        <walk from="372469388#1" to="-1199455963"/>
    </person>
    <person id="ped135" depart="710.70" type="ped_pedestrian">
        <walk from="695510004" to="1192334146#0"/>
    </person>
    <person id="ped136" depart="715.97" type="ped_pedestrian">
        <walk from="372469394" to="828678900"/>
    </person>
    <person id="ped137" depart="721.23" type="ped_pedestrian">
        <walk from="-695040107#0" to="-695027206"/>
    </person>
    <person id="ped138" depart="726.50" type="ped_pedestrian">
        <walk from="-642067357#0" to="1384907062#7"/>
    </person>
    <person id="ped139" depart="731.76" type="ped_pedestrian">
        <walk from="-931369479#0" to="295386168"/>
    </person>
    <person id="ped140" depart="737.02" type="ped_pedestrian">
        <walk from="693885804#1.60" to="-695691452"/>
    </person>
    <person id="ped141" depart="742.29" type="ped_pedestrian">
        <walk from="372468201#2" to="-828678900"/>
    </person>
    <person id="ped142" depart="747.55" type="ped_pedestrian">
        <walk from="1254909516#1" to="828678850#1"/>
    </person>
    <person id="ped143" depart="752.82" type="ped_pedestrian">
        <walk from="695691448" to="-642035207#1"/>
    </person>
    <person id="ped144" depart="758.08" type="ped_pedestrian">
        <walk from="1254909512#5" to="-931369479#0"/>
    </person>
    <person id="ped145" depart="763.35" type="ped_pedestrian">
        <walk from="-1192334146#0" to="695027209#0"/>
    </person>
    <person id="ped146" depart="768.61" type="ped_pedestrian">
        <walk from="372468201#2" to="-828678900"/>
    </person>
    <person id="ped147" depart="773.88" type="ped_pedestrian">
        <walk from="695025559" to="1384907062#7"/>
    </person>
    <person id="ped148" depart="779.14" type="ped_pedestrian">
        <walk from="1254909512#5" to="-1199455963"/>
    </person>
    <person id="ped149" depart="784.40" type="ped_pedestrian">
        <walk from="-641423229" to="695691454#0"/>
    </person>
    <person id="ped150" depart="789.67" type="ped_pedestrian">
        <walk from="828678850#1" to="1384907062#6"/>
    </person>
    <person id="ped151" depart="794.93" type="ped_pedestrian">
        <walk from="695668721#0" to="295386161"/>
    </person>
    <person id="ped152" depart="800.20" type="ped_pedestrian">
        <walk from="-695040107#2" to="-695033472#2"/>
    </person>
    <person id="ped153" depart="805.46" type="ped_pedestrian">
        <walk from="1204196244#0" to="828678849"/>
    </person>
    <person id="ped154" depart="810.73" type="ped_pedestrian">
        <walk from="695040107#0" to="695691450"/>
    </person>
    <person id="ped155" depart="815.99" type="ped_pedestrian">
        <walk from="828678849" to="-695691453"/>
    </person>
    <person id="ped156" depart="821.26" type="ped_pedestrian">
        <walk from="-828678896" to="-642035208#1"/>
    </person>
    <person id="ped157" depart="826.52" type="ped_pedestrian">
        <walk from="695033472#2" to="779462187#1.4"/>
    </person>
    <person id="ped158" depart="831.78" type="ped_pedestrian">
        <walk from="1254909512#2" to="295386175#2"/>
    </person>
    <person id="ped159" depart="837.05" type="ped_pedestrian">
        <walk from="-695040107#3" to="828678898"/>
    </person>
    <person id="ped160" depart="842.31" type="ped_pedestrian">
        <walk from="695691451" to="931369479#3"/>
    </person>
    <person id="ped161" depart="847.58" type="ped_pedestrian">
        <walk from="695040107#2" to="695691454#0"/>
    </person>
    <person id="ped162" depart="852.84" type="ped_pedestrian">
        <walk from="-295386175#2" to="694830398#3"/>
    </person>
    <person id="ped163" depart="858.11" type="ped_pedestrian">
        <walk from="1204196246#1" to="828678898"/>
    </person>
    <person id="ped164" depart="863.37" type="ped_pedestrian">
        <walk from="695040107#1" to="695691451"/>
    </person>
    <person id="ped165" depart="868.64" type="ped_pedestrian">
        <walk from="695040107#2" to="-931369478"/>
    </person>
    <person id="ped166" depart="873.90" type="ped_pedestrian">
        <walk from="695033473" to="-642067357#0"/>
    </person>
    <person id="ped167" depart="879.16" type="ped_pedestrian">
        <walk from="695691452" to="695691450"/>
    </person>
    <person id="ped168" depart="884.43" type="ped_pedestrian">
        <walk from="-828678849" to="695040107#3"/>
    </person>
    <person id="ped169" depart="889.69" type="ped_pedestrian">
        <walk from="1254909515#0" to="1199455963"/>
    </person>
    <person id="ped170" depart="894.96" type="ped_pedestrian">
        <walk from="695040107#0" to="-828678849"/>
    </person>
    <person id="ped171" depart="900.22" type="ped_pedestrian">
        <walk from="-295386175#2" to="-695691449"/>
    </person>
    <person id="ped172" depart="905.49" type="ped_pedestrian">
        <walk from="1204196246#1" to="695691451"/>
    </person>
    <person id="ped173" depart="910.75" type="ped_pedestrian">
        <walk from="931369479#2" to="-931369479#1"/>
    </person>
    <person id="ped174" depart="916.02" type="ped_pedestrian">
        <walk from="372469387#0" to="1204196251#1"/>
    </person>
    <person id="ped175" depart="921.28" type="ped_pedestrian">
        <walk from="E0" to="1384907062#4"/>
    </person>
    <person id="ped176" depart="926.54" type="ped_pedestrian">
        <walk from="828678900" to="-695027206"/>
    </person>
    <person id="ped177" depart="931.81" type="ped_pedestrian">
        <walk from="931369479#2" to="-695673446#0"/>
    </person>
    <person id="ped178" depart="937.07" type="ped_pedestrian">
        <walk from="931369479#1" to="-828678900"/>
    </person>
    <person id="ped179" depart="942.34" type="ped_pedestrian">
        <walk from="-642067357#0" to="1254909513#1"/>
    </person>
    <person id="ped180" depart="947.60" type="ped_pedestrian">
        <walk from="694830397.22" to="1204196244#1"/>
    </person>
    <person id="ped181" depart="952.87" type="ped_pedestrian">
        <walk from="295386175#0" to="1380613830#5"/>
    </person>
    <person id="ped182" depart="958.13" type="ped_pedestrian">
        <walk from="1204196250#1" to="295386160"/>
    </person>
    <person id="ped183" depart="963.40" type="ped_pedestrian">
        <walk from="-828678897" to="689583179#5"/>
    </person>
    <person id="ped184" depart="968.66" type="ped_pedestrian">
        <walk from="-1192334146#0" to="828678897"/>
    </person>
    <person id="ped185" depart="973.92" type="ped_pedestrian">
        <walk from="1384907062#4" to="693885804#1.60"/>
    </person>
    <person id="ped186" depart="979.19" type="ped_pedestrian">
        <walk from="695025559" to="641423229"/>
    </person>
    <person id="ped187" depart="984.45" type="ped_pedestrian">
        <walk from="1204196249#2" to="-372469394"/>
    </person>
    <person id="ped188" depart="989.72" type="ped_pedestrian">
        <walk from="372469394" to="1204196246#1"/>
    </person>
    <person id="ped189" depart="994.98" type="ped_pedestrian">
        <walk from="1204196244#1" to="695691448"/>
    </person>
    <person id="ped190" depart="1000.25" type="ped_pedestrian">
        <walk from="693885804#1.60" to="1199455963"/>
    </person>
    <person id="ped191" depart="1005.51" type="ped_pedestrian">
        <walk from="1204196244#0" to="1254909512#2"/>
    </person>
    <person id="ped192" depart="1010.78" type="ped_pedestrian">
        <walk from="1254909512#1" to="1192334146#0"/>
    </person>
    <person id="ped193" depart="1016.04" type="ped_pedestrian">
        <walk from="-695033472#2" to="1254909512#4"/>
    </person>
    <person id="ped194" depart="1021.30" type="ped_pedestrian">
        <walk from="828678900" to="642035206"/>
    </person>
    <person id="ped195" depart="1026.57" type="ped_pedestrian">
        <walk from="828678850#1" to="295386175#1"/>
    </person>
    <person id="ped196" depart="1031.83" type="ped_pedestrian">
        <walk from="1199455963" to="1384907062#6"/>
    </person>
    <person id="ped197" depart="1037.10" type="ped_pedestrian">
        <walk from="-1192334146#0" to="-931369479#2"/>
    </person>
    <person id="ped198" depart="1042.36" type="ped_pedestrian">
        <walk from="1254909513#0" to="295386161"/>
    </person>
    <person id="ped199" depart="1047.63" type="ped_pedestrian">
        <walk from="372469388#1" to="1254909515#1"/>
    </person>
    <person id="ped200" depart="1052.89" type="ped_pedestrian">
        <walk from="1254909513#2" to="-695691454#0"/>
    </person>
    <person id="ped201" depart="1058.16" type="ped_pedestrian">
        <walk from="1254909515#3" to="828678850#1"/>
    </person>
    <person id="ped202" depart="1063.42" type="ped_pedestrian">
        <walk from="695040107#0" to="-695512891"/>
    </person>
    <person id="ped203" depart="1068.69" type="ped_pedestrian">
        <walk from="-642035207#0" to="1380613830#5"/>
    </person>
    <person id="ped204" depart="1073.95" type="ped_pedestrian">
        <walk from="372468201#1" to="1204196247#0"/>
    </person>
    <person id="ped205" depart="1079.21" type="ped_pedestrian">
        <walk from="695510004" to="695025562#1"/>
    </person>
    <person id="ped206" depart="1084.48" type="ped_pedestrian">
        <walk from="642035206" to="-828678849"/>
    </person>
    <person id="ped207" depart="1089.74" type="ped_pedestrian">
        <walk from="-695691451" to="-295386175#2"/>
    </person>
    <person id="ped208" depart="1095.01" type="ped_pedestrian">
        <walk from="-828678896" to="1254909515#3"/>
    </person>
    <person id="ped209" depart="1100.27" type="ped_pedestrian">
        <walk from="695691448" to="-641423229"/>
    </person>
    <person id="ped210" depart="1105.54" type="ped_pedestrian">
        <walk from="1254909512#3" to="372468201#1"/>
    </person>
    <person id="ped211" depart="1110.80" type="ped_pedestrian">
        <walk from="-695691449" to="642035208#1"/>
    </person>
    <person id="ped212" depart="1116.07" type="ped_pedestrian">
        <walk from="1254909517" to="-828678895"/>
    </person>
    <person id="ped213" depart="1121.33" type="ped_pedestrian">
        <walk from="372469389#0" to="-1192334146#0"/>
    </person>
    <person id="ped214" depart="1126.59" type="ped_pedestrian">
        <walk from="695025562#1" to="695027209#0"/>
    </person>
    <person id="ped215" depart="1131.86" type="ped_pedestrian">
        <walk from="-642067357#0" to="1254909512#5"/>
    </person>
    <person id="ped216" depart="1137.12" type="ped_pedestrian">
        <walk from="-695668721#0" to="931369479#0"/>
    </person>
    <person id="ped217" depart="1142.39" type="ped_pedestrian">
        <walk from="1384907062#1" to="-372469387#1"/>
    </person>
    <person id="ped218" depart="1147.65" type="ped_pedestrian">
        <walk from="-828678896" to="695691448"/>
    </person>
    <person id="ped219" depart="1152.92" type="ped_pedestrian">
        <walk from="1254909515#0" to="695040107#1"/>
    </person>
    <person id="ped220" depart="1158.18" type="ped_pedestrian">
        <walk from="641423229" to="E1"/>
    </person>
    <person id="ped221" depart="1163.45" type="ped_pedestrian">
        <walk from="295386166" to="931369478"/>
    </person>
    <person id="ped222" depart="1168.71" type="ped_pedestrian">
        <walk from="779462187#1.9" to="295386175#1"/>
    </person>
    <person id="ped223" depart="1173.97" type="ped_pedestrian">
        <walk from="693885804#1.60" to="1380613829#0"/>
    </person>
    <person id="ped224" depart="1179.24" type="ped_pedestrian">
        <walk from="695512891" to="1384907062#6"/>
    </person>
    <person id="ped225" depart="1184.50" type="ped_pedestrian">
        <walk from="828678849" to="695025559"/>
    </person>
    <person id="ped226" depart="1189.77" type="ped_pedestrian">
        <walk from="1254909515#3" to="-828678898"/>
    </person>
    <person id="ped227" depart="1195.03" type="ped_pedestrian">
        <walk from="-828678896" to="372468201#2"/>
    </person>
    <person id="ped228" depart="1200.30" type="ped_pedestrian">
        <walk from="695027207" to="1384907062#1"/>
    </person>