<?xml version="1.0" encoding="UTF-8"?>

<!-- generated on 2025-07-26 21:04:23.794970 by randomTrips.py UNKNOWN
<configuration>
    <net-file value="osm.net.xml.gz"/>
    <weights-prefix value="random_edge_priority"/>
    <output-trip-file value="osm.res_veh.trips.xml"/>
    <prefix value="res_veh"/>
    <trip-attributes value="departLane='best'"/>
    <fringe-start-attributes value="departSpeed='max'"/>
    <vehicle-class value="passenger"/>
    <remove-loops value="True"/>
    <validate value="True"/>
    <insertion-rate value="1500.0"/>
</configuration>
-->

<!-- generated on 2025-07-26 21:04:23 by Eclipse SUMO duarouter Version 1.22.0
<duarouterConfiguration xmlns:xsi="http://www.w3.org/2001/XMLSchema-instance" xsi:noNamespaceSchemaLocation="http://sumo.dlr.de/xsd/duarouterConfiguration.xsd">

    <input>
        <net-file value="osm.net.xml.gz"/>
        <route-files value="osm.res_veh.trips.xml"/>
    </input>

    <output>
        <output-file value="osm.res_veh.trips.xml.tmp"/>
        <alternatives-output value="NUL"/>
        <write-trips value="true"/>
    </output>

    <processing>
        <remove-loops value="true"/>
    </processing>

    <time>
        <begin value="0.0"/>
        <end value="3600.0"/>
    </time>

    <report>
        <no-warnings value="true"/>
        <ignore-errors value="true"/>
        <no-step-log value="true"/>
    </report>

</duarouterConfiguration>
-->

<routes xmlns:xsi="http://www.w3.org/2001/XMLSchema-instance" xsi:noNamespaceSchemaLocation="http://sumo.dlr.de/xsd/routes_file.xsd">
    <vType id="res_veh_passenger" vClass="passenger"/>
    <trip id="res_veh0" type="res_veh_passenger" depart="0.00" departLane="best" departSpeed="max" from="E21" to="E18.410"/>
    <trip id="res_veh1" type="res_veh_passenger" depart="2.40" departLane="best" departSpeed="max" from="E18" to="E20"/>
    <trip id="res_veh2" type="res_veh_passenger" depart="4.80" departLane="best" departSpeed="max" from="E21" to="E30.558"/>
    <trip id="res_veh3" type="res_veh_passenger" depart="7.20" departLane="best" departSpeed="max" from="E21" to="E18.410"/>
    <trip id="res_veh4" type="res_veh_passenger" depart="9.60" departLane="best" departSpeed="max" from="E18" to="E18.410"/>
    <trip id="res_veh5" type="res_veh_passenger" depart="12.00" departLane="best" departSpeed="max" from="E18" to="E3"/>
    <trip id="res_veh6" type="res_veh_passenger" depart="14.40" departLane="best" departSpeed="max" from="E18" to="E20"/>
    <trip id="res_veh7" type="res_veh_passenger" depart="16.80" departLane="best" departSpeed="max" from="E21" to="E3"/>
    <trip id="res_veh8" type="res_veh_passenger" depart="19.20" departLane="best" departSpeed="max" from="E18" to="E3"/>
    <trip id="res_veh9" type="res_veh_passenger" depart="21.60" departLane="best" departSpeed="max" from="E21" to="E18.410"/>
    <trip id="res_veh10" type="res_veh_passenger" depart="24.00" departLane="best" departSpeed="max" from="E21" to="E30.558"/>
    <trip id="res_veh11" type="res_veh_passenger" depart="26.40" departLane="best" departSpeed="max" from="E18" to="E20"/>
    <trip id="res_veh13" type="res_veh_passenger" depart="31.20" departLane="best" departSpeed="max" from="E18" to="E18.410"/>
    <trip id="res_veh14" type="res_veh_passenger" depart="33.60" departLane="best" departSpeed="max" from="E21" to="E3"/>
    <trip id="res_veh15" type="res_veh_passenger" depart="36.00" departLane="best" departSpeed="max" from="E21" to="E30.558"/>
    <trip id="res_veh16" type="res_veh_passenger" depart="38.40" departLane="best" departSpeed="max" from="E21" to="E32"/>
    <trip id="res_veh17" type="res_veh_passenger" depart="40.80" departLane="best" departSpeed="max" from="E18" to="E3"/>
    <trip id="res_veh18" type="res_veh_passenger" depart="43.20" departLane="best" departSpeed="max" from="E21" to="E3"/>
    <trip id="res_veh19" type="res_veh_passenger" depart="45.60" departLane="best" departSpeed="max" from="E21" to="E3"/>
    <trip id="res_veh20" type="res_veh_passenger" depart="48.00" departLane="best" departSpeed="max" from="E21" to="E18.410"/>
    <trip id="res_veh22" type="res_veh_passenger" depart="52.80" departLane="best" departSpeed="max" from="E18" to="E20"/>
    <trip id="res_veh24" type="res_veh_passenger" depart="57.60" departLane="best" departSpeed="max" from="E21" to="E22"/>
    <trip id="res_veh25" type="res_veh_passenger" depart="60.00" departLane="best" departSpeed="max" from="E18" to="E20"/>
    <trip id="res_veh26" type="res_veh_passenger" depart="62.40" departLane="best" departSpeed="max" from="E18" to="E32"/>
    <trip id="res_veh27" type="res_veh_passenger" depart="64.80" departLane="best" departSpeed="max" from="E21" to="E3"/>
    <trip id="res_veh29" type="res_veh_passenger" depart="69.60" departLane="best" departSpeed="max" from="E18" to="E22.488"/>
    <trip id="res_veh30" type="res_veh_passenger" depart="72.00" departLane="best" departSpeed="max" from="E31" to="E30.558"/>
    <trip id="res_veh31" type="res_veh_passenger" depart="74.40" departLane="best" departSpeed="max" from="E21" to="E30.558"/>
    <trip id="res_veh33" type="res_veh_passenger" depart="79.20" departLane="best" departSpeed="max" from="E18" to="E18.410"/>
    <trip id="res_veh35" type="res_veh_passenger" depart="84.00" departLane="best" departSpeed="max" from="E18" to="E32"/>
    <trip id="res_veh36" type="res_veh_passenger" depart="86.40" departLane="best" departSpeed="max" from="E21" to="E22"/>
    <trip id="res_veh37" type="res_veh_passenger" depart="88.80" departLane="best" departSpeed="max" from="E21" to="E22.488"/>
    <trip id="res_veh39" type="res_veh_passenger" depart="93.60" departLane="best" departSpeed="max" from="E18" to="E20"/>
    <trip id="res_veh40" type="res_veh_passenger" depart="96.00" departLane="best" departSpeed="max" from="E21" to="E22"/>
    <trip id="res_veh41" type="res_veh_passenger" depart="98.40" departLane="best" departSpeed="max" from="E21" to="E32"/>
    <trip id="res_veh42" type="res_veh_passenger" depart="100.80" departLane="best" departSpeed="max" from="E18" to="E20"/>
    <trip id="res_veh43" type="res_veh_passenger" depart="103.20" departLane="best" departSpeed="max" from="E31" to="E3"/>
    <trip id="res_veh44" type="res_veh_passenger" depart="105.60" departLane="best" departSpeed="max" from="E18" to="E18.410"/>
    <trip id="res_veh46" type="res_veh_passenger" depart="110.40" departLane="best" departSpeed="max" from="E21" to="E22.488"/>
    <trip id="res_veh47" type="res_veh_passenger" depart="112.80" departLane="best" departSpeed="max" from="E18" to="E22.488"/>
    <trip id="res_veh48" type="res_veh_passenger" depart="115.20" departLane="best" departSpeed="max" from="E31" to="E3"/>
    <trip id="res_veh49" type="res_veh_passenger" depart="117.60" departLane="best" departSpeed="max" from="E31" to="E31.622"/>
    <trip id="res_veh51" type="res_veh_passenger" depart="122.40" departLane="best" departSpeed="max" from="E21" to="E3"/>
    <trip id="res_veh53" type="res_veh_passenger" depart="127.20" departLane="best" departSpeed="max" from="E18" to="E22.488"/>
    <trip id="res_veh54" type="res_veh_passenger" depart="129.60" departLane="best" departSpeed="max" from="E21" to="E32"/>
    <trip id="res_veh55" type="res_veh_passenger" depart="132.00" departLane="best" departSpeed="max" from="E21" to="E22"/>
    <trip id="res_veh57" type="res_veh_passenger" depart="136.80" departLane="best" departSpeed="max" from="E31" to="E31.622"/>
    <trip id="res_veh60" type="res_veh_passenger" depart="144.00" departLane="best" departSpeed="max" from="E21" to="E3"/>
    <trip id="res_veh61" type="res_veh_passenger" depart="146.40" departLane="best" departSpeed="max" from="E21" to="E3"/>
    <trip id="res_veh63" type="res_veh_passenger" depart="151.20" departLane="best" departSpeed="max" from="E18" to="E32"/>
    <trip id="res_veh65" type="res_veh_passenger" depart="156.00" departLane="best" departSpeed="max" from="E18" to="E18.410"/>
    <trip id="res_veh66" type="res_veh_passenger" depart="158.40" departLane="best" departSpeed="max" from="E21" to="E32"/>
    <trip id="res_veh67" type="res_veh_passenger" depart="160.80" departLane="best" departSpeed="max" from="E18" to="E22.488"/>
    <trip id="res_veh68" type="res_veh_passenger" depart="163.20" departLane="best" departSpeed="max" from="E18" to="E31.622"/>
    <trip id="res_veh70" type="res_veh_passenger" depart="168.00" departLane="best" departSpeed="max" from="E21" to="E3"/>
    <trip id="res_veh71" type="res_veh_passenger" depart="170.40" departLane="best" departSpeed="max" from="E18" to="E31.622"/>
    <trip id="res_veh72" type="res_veh_passenger" depart="172.80" departLane="best" departSpeed="max" from="E18" to="E20"/>
    <trip id="res_veh73" type="res_veh_passenger" depart="175.20" departLane="best" departSpeed="max" from="E21" to="E30.558"/>
    <trip id="res_veh75" type="res_veh_passenger" depart="180.00" departLane="best" departSpeed="max" from="E31" to="E30.558"/>
    <trip id="res_veh76" type="res_veh_passenger" depart="182.40" departLane="best" departSpeed="max" from="E18" to="E3"/>
    <trip id="res_veh77" type="res_veh_passenger" depart="184.80" departLane="best" departSpeed="max" from="E18" to="E20"/>
    <trip id="res_veh78" type="res_veh_passenger" depart="187.20" departLane="best" departSpeed="max" from="E18" to="E3"/>
    <trip id="res_veh79" type="res_veh_passenger" depart="189.60" departLane="best" departSpeed="max" from="E18" to="E20"/>
    <trip id="res_veh81" type="res_veh_passenger" depart="194.40" departLane="best" departSpeed="max" from="E18" to="E32"/>
    <trip id="res_veh82" type="res_veh_passenger" depart="196.80" departLane="best" departSpeed="max" from="E21" to="E18.410"/>
    <trip id="res_veh84" type="res_veh_passenger" depart="201.60" departLane="best" departSpeed="max" from="E18" to="E20"/>
    <trip id="res_veh85" type="res_veh_passenger" depart="204.00" departLane="best" departSpeed="max" from="E31" to="E3"/>
    <trip id="res_veh88" type="res_veh_passenger" depart="211.20" departLane="best" departSpeed="max" from="E18" to="E22.488"/>
    <trip id="res_veh89" type="res_veh_passenger" depart="213.60" departLane="best" departSpeed="max" from="E18" to="E22.488"/>
    <trip id="res_veh90" type="res_veh_passenger" depart="216.00" departLane="best" departSpeed="max" from="E21" to="E30.558"/>
    <trip id="res_veh91" type="res_veh_passenger" depart="218.40" departLane="best" departSpeed="max" from="E31" to="E18.410"/>
    <trip id="res_veh94" type="res_veh_passenger" depart="225.60" departLane="best" departSpeed="max" from="E18" to="E22.488"/>
    <trip id="res_veh96" type="res_veh_passenger" depart="230.40" departLane="best" departSpeed="max" from="E18" to="E32"/>
    <trip id="res_veh97" type="res_veh_passenger" depart="232.80" departLane="best" departSpeed="max" from="E18" to="E31.622"/>
    <trip id="res_veh98" type="res_veh_passenger" depart="235.20" departLane="best" departSpeed="max" from="E21" to="E18.410"/>
    <trip id="res_veh99" type="res_veh_passenger" depart="237.60" departLane="best" departSpeed="max" from="E31" to="E31.622"/>
    <trip id="res_veh100" type="res_veh_passenger" depart="240.00" departLane="best" departSpeed="max" from="E31" to="E32"/>
    <trip id="res_veh103" type="res_veh_passenger" depart="247.20" departLane="best" departSpeed="max" from="E18" to="E18.410"/>
    <trip id="res_veh104" type="res_veh_passenger" depart="249.60" departLane="best" departSpeed="max" from="E18" to="E32"/>
    <trip id="res_veh105" type="res_veh_passenger" depart="252.00" departLane="best" departSpeed="max" from="E18" to="E31.622"/>
    <trip id="res_veh106" type="res_veh_passenger" depart="254.40" departLane="best" departSpeed="max" from="E21" to="E22.488"/>
    <trip id="res_veh107" type="res_veh_passenger" depart="256.80" departLane="best" departSpeed="max" from="E31" to="E32"/>
    <trip id="res_veh108" type="res_veh_passenger" depart="259.20" departLane="best" departSpeed="max" from="E21" to="E30.558"/>
    <trip id="res_veh110" type="res_veh_passenger" depart="264.00" departLane="best" departSpeed="max" from="E31" to="E3"/>
    <trip id="res_veh111" type="res_veh_passenger" depart="266.40" departLane="best" departSpeed="max" from="E21" to="E30.558"/>
    <trip id="res_veh112" type="res_veh_passenger" depart="268.80" departLane="best" departSpeed="max" from="E18" to="E3"/>
    <trip id="res_veh114" type="res_veh_passenger" depart="273.60" departLane="best" departSpeed="max" from="E18" to="E32"/>
    <trip id="res_veh115" type="res_veh_passenger" depart="276.00" departLane="best" departSpeed="max" from="E18" to="E20"/>
    <trip id="res_veh116" type="res_veh_passenger" depart="278.40" departLane="best" departSpeed="max" from="E21" to="E30.558"/>
    <trip id="res_veh117" type="res_veh_passenger" depart="280.80" departLane="best" departSpeed="max" from="E18" to="E18.410"/>
    <trip id="res_veh119" type="res_veh_passenger" depart="285.60" departLane="best" departSpeed="max" from="E21" to="E3"/>
    <trip id="res_veh120" type="res_veh_passenger" depart="288.00" departLane="best" departSpeed="max" from="E18" to="E3"/>
    <trip id="res_veh121" type="res_veh_passenger" depart="290.40" departLane="best" departSpeed="max" from="E21" to="E32"/>
    <trip id="res_veh123" type="res_veh_passenger" depart="295.20" departLane="best" departSpeed="max" from="E18" to="E22.488"/>
    <trip id="res_veh124" type="res_veh_passenger" depart="297.60" departLane="best" departSpeed="max" from="E21" to="E22"/>
    <trip id="res_veh125" type="res_veh_passenger" depart="300.00" departLane="best" departSpeed="max" from="E18" to="E31.622"/>
    <trip id="res_veh126" type="res_veh_passenger" depart="302.40" departLane="best" departSpeed="max" from="E18" to="E22.488"/>
    <trip id="res_veh127" type="res_veh_passenger" depart="304.80" departLane="best" departSpeed="max" from="E31" to="E32"/>
    <trip id="res_veh128" type="res_veh_passenger" depart="307.20" departLane="best" departSpeed="max" from="E18" to="E20"/>
    <trip id="res_veh129" type="res_veh_passenger" depart="309.60" departLane="best" departSpeed="max" from="E18" to="E32"/>
    <trip id="res_veh130" type="res_veh_passenger" depart="312.00" departLane="best" departSpeed="max" from="E21" to="E32"/>
    <trip id="res_veh131" type="res_veh_passenger" depart="314.40" departLane="best" departSpeed="max" from="E18" to="E20"/>
    <trip id="res_veh132" type="res_veh_passenger" depart="316.80" departLane="best" departSpeed="max" from="E21" to="E30.558"/>
    <trip id="res_veh133" type="res_veh_passenger" depart="319.20" departLane="best" departSpeed="max" from="E21" to="E32"/>
    <trip id="res_veh134" type="res_veh_passenger" depart="321.60" departLane="best" departSpeed="max" from="E21" to="E18.410"/>
    <trip id="res_veh135" type="res_veh_passenger" depart="324.00" departLane="best" departSpeed="max" from="E21" to="E22"/>
    <trip id="res_veh136" type="res_veh_passenger" depart="326.40" departLane="best" departSpeed="max" from="E21" to="E32"/>
    <trip id="res_veh137" type="res_veh_passenger" depart="328.80" departLane="best" departSpeed="max" from="E18" to="E18.410"/>
    <trip id="res_veh138" type="res_veh_passenger" depart="331.20" departLane="best" departSpeed="max" from="E18" to="E3"/>
    <trip id="res_veh139" type="res_veh_passenger" depart="333.60" departLane="best" departSpeed="max" from="E18" to="E3"/>
    <trip id="res_veh141" type="res_veh_passenger" depart="338.40" departLane="best" departSpeed="max" from="E21" to="E22"/>
    <trip id="res_veh142" type="res_veh_passenger" depart="340.80" departLane="best" departSpeed="max" from="E21" to="E32"/>
    <trip id="res_veh143" type="res_veh_passenger" depart="343.20" departLane="best" departSpeed="max" from="E21" to="E18.410"/>
    <trip id="res_veh145" type="res_veh_passenger" depart="348.00" departLane="best" departSpeed="max" from="E18" to="E31.622"/>
    <trip id="res_veh146" type="res_veh_passenger" depart="350.40" departLane="best" departSpeed="max" from="E21" to="E22"/>
    <trip id="res_veh147" type="res_veh_passenger" depart="352.80" departLane="best" departSpeed="max" from="E21" to="E3"/>
    <trip id="res_veh148" type="res_veh_passenger" depart="355.20" departLane="best" departSpeed="max" from="E18" to="E18.410"/>
    <trip id="res_veh149" type="res_veh_passenger" depart="357.60" departLane="best" departSpeed="max" from="E18" to="E32"/>
    <trip id="res_veh150" type="res_veh_passenger" depart="360.00" departLane="best" departSpeed="max" from="E31" to="E3"/>
    <trip id="res_veh151" type="res_veh_passenger" depart="362.40" departLane="best" departSpeed="max" from="E21" to="E3"/>
    <trip id="res_veh152" type="res_veh_passenger" depart="364.80" departLane="best" departSpeed="max" from="E18" to="E20"/>
    <trip id="res_veh153" type="res_veh_passenger" depart="367.20" departLane="best" departSpeed="max" from="E18" to="E32"/>
    <trip id="res_veh156" type="res_veh_passenger" depart="374.40" departLane="best" departSpeed="max" from="E18" to="E18.410"/>
    <trip id="res_veh157" type="res_veh_passenger" depart="376.80" departLane="best" departSpeed="max" from="E21" to="E32"/>
    <trip id="res_veh158" type="res_veh_passenger" depart="379.20" departLane="best" departSpeed="max" from="E18" to="E3"/>
    <trip id="res_veh159" type="res_veh_passenger" depart="381.60" departLane="best" departSpeed="max" from="E18" to="E32"/>
    <trip id="res_veh160" type="res_veh_passenger" depart="384.00" departLane="best" departSpeed="max" from="E21" to="E32"/>
    <trip id="res_veh161" type="res_veh_passenger" depart="386.40" departLane="best" departSpeed="max" from="E21" to="E32"/>
    <trip id="res_veh163" type="res_veh_passenger" depart="391.20" departLane="best" departSpeed="max" from="E18" to="E32"/>
    <trip id="res_veh165" type="res_veh_passenger" depart="396.00" departLane="best" departSpeed="max" from="E21" to="E22"/>
    <trip id="res_veh166" type="res_veh_passenger" depart="398.40" departLane="best" departSpeed="max" from="E21" to="E18.410"/>
    <trip id="res_veh168" type="res_veh_passenger" depart="403.20" departLane="best" departSpeed="max" from="E18" to="E31.622"/>
    <trip id="res_veh169" type="res_veh_passenger" depart="405.60" departLane="best" departSpeed="max" from="E21" to="E22"/>
    <trip id="res_veh171" type="res_veh_passenger" depart="410.40" departLane="best" departSpeed="max" from="E18" to="E20"/>
    <trip id="res_veh172" type="res_veh_passenger" depart="412.80" departLane="best" departSpeed="max" from="E18" to="E31.622"/>
    <trip id="res_veh174" type="res_veh_passenger" depart="417.60" departLane="best" departSpeed="max" from="E21" to="E22.488"/>
    <trip id="res_veh175" type="res_veh_passenger" depart="420.00" departLane="best" departSpeed="max" from="E31" to="E3"/>
    <trip id="res_veh176" type="res_veh_passenger" depart="422.40" departLane="best" departSpeed="max" from="E31" to="E18.410"/>
    <trip id="res_veh177" type="res_veh_passenger" depart="424.80" departLane="best" departSpeed="max" from="E31" to="E20"/>
    <trip id="res_veh179" type="res_veh_passenger" depart="429.60" departLane="best" departSpeed="max" from="E18" to="E22.488"/>
    <trip id="res_veh180" type="res_veh_passenger" depart="432.00" departLane="best" departSpeed="max" from="E21" to="E22"/>
    <trip id="res_veh181" type="res_veh_passenger" depart="434.40" departLane="best" departSpeed="max" from="E21" to="E3"/>
    <trip id="res_veh182" type="res_veh_passenger" depart="436.80" departLane="best" departSpeed="max" from="E18" to="E3"/>
    <trip id="res_veh184" type="res_veh_passenger" depart="441.60" departLane="best" departSpeed="max" from="E18" to="E32"/>
    <trip id="res_veh185" type="res_veh_passenger" depart="444.00" departLane="best" departSpeed="max" from="E21" to="E30.558"/>
    <trip id="res_veh186" type="res_veh_passenger" depart="446.40" departLane="best" departSpeed="max" from="E21" to="E30.558"/>
    <trip id="res_veh187" type="res_veh_passenger" depart="448.80" departLane="best" departSpeed="max" from="E18" to="E18.410"/>
    <trip id="res_veh188" type="res_veh_passenger" depart="451.20" departLane="best" departSpeed="max" from="E21" to="E22"/>
    <trip id="res_veh189" type="res_veh_passenger" depart="453.60" departLane="best" departSpeed="max" from="E18" to="E31.622"/>
    <trip id="res_veh190" type="res_veh_passenger" depart="456.00" departLane="best" departSpeed="max" from="E21" to="E22"/>
    <trip id="res_veh191" type="res_veh_passenger" depart="458.40" departLane="best" departSpeed="max" from="E18" to="E22.488"/>
    <trip id="res_veh193" type="res_veh_passenger" depart="463.20" departLane="best" departSpeed="max" from="E18" to="E22.488"/>
    <trip id="res_veh194" type="res_veh_passenger" depart="465.60" departLane="best" departSpeed="max" from="E31" to="E30.558"/>
    <trip id="res_veh195" type="res_veh_passenger" depart="468.00" departLane="best" departSpeed="max" from="E31" to="E3"/>
    <trip id="res_veh196" type="res_veh_passenger" depart="470.40" departLane="best" departSpeed="max" from="E18" to="E3"/>
    <trip id="res_veh198" type="res_veh_passenger" depart="475.20" departLane="best" departSpeed="max" from="E18" to="E3"/>
    <trip id="res_veh199" type="res_veh_passenger" depart="477.60" departLane="best" departSpeed="max" from="E21" to="E22.488"/>
    <trip id="res_veh200" type="res_veh_passenger" depart="480.00" departLane="best" departSpeed="max" from="E18" to="E20"/>
    <trip id="res_veh201" type="res_veh_passenger" depart="482.40" departLane="best" departSpeed="max" from="E21" to="E32"/>
    <trip id="res_veh203" type="res_veh_passenger" depart="487.20" departLane="best" departSpeed="max" from="E18" to="E3"/>
    <trip id="res_veh204" type="res_veh_passenger" depart="489.60" departLane="best" departSpeed="max" from="E21" to="E22"/>
    <trip id="res_veh207" type="res_veh_passenger" depart="496.80" departLane="best" departSpeed="max" from="E18" to="E18.410"/>
    <trip id="res_veh208" type="res_veh_passenger" depart="499.20" departLane="best" departSpeed="max" from="E18" to="E22.488"/>
    <trip id="res_veh209" type="res_veh_passenger" depart="501.60" departLane="best" departSpeed="max" from="E21" to="E18.410"/>
    <trip id="res_veh213" type="res_veh_passenger" depart="511.20" departLane="best" departSpeed="max" from="E21" to="E18.410"/>
    <trip id="res_veh215" type="res_veh_passenger" depart="516.00" departLane="best" departSpeed="max" from="E18" to="E22.488"/>
    <trip id="res_veh216" type="res_veh_passenger" depart="518.40" departLane="best" departSpeed="max" from="E18" to="E32"/>
    <trip id="res_veh217" type="res_veh_passenger" depart="520.80" departLane="best" departSpeed="max" from="E21" to="E18.410"/>
    <trip id="res_veh218" type="res_veh_passenger" depart="523.20" departLane="best" departSpeed="max" from="E18" to="E31.622"/>
    <trip id="res_veh220" type="res_veh_passenger" depart="528.00" departLane="best" departSpeed="max" from="E21" to="E32"/>
    <trip id="res_veh221" type="res_veh_passenger" depart="530.40" departLane="best" departSpeed="max" from="E21" to="E32"/>
    <trip id="res_veh222" type="res_veh_passenger" depart="532.80" departLane="best" departSpeed="max" from="E21" to="E3"/>
    <trip id="res_veh223" type="res_veh_passenger" depart="535.20" departLane="best" departSpeed="max" from="E21" to="E3"/>
    <trip id="res_veh224" type="res_veh_passenger" depart="537.60" departLane="best" departSpeed="max" from="E21" to="E3"/>
    <trip id="res_veh225" type="res_veh_passenger" depart="540.00" departLane="best" departSpeed="max" from="E21" to="E30.558"/>
    <trip id="res_veh226" type="res_veh_passenger" depart="542.40" departLane="best" departSpeed="max" from="E21" to="E22"/>
    <trip id="res_veh228" type="res_veh_passenger" depart="547.20" departLane="best" departSpeed="max" from="E21" to="E3"/>
    <trip id="res_veh229" type="res_veh_passenger" depart="549.60" departLane="best" departSpeed="max" from="E21" to="E22"/>
    <trip id="res_veh234" type="res_veh_passenger" depart="561.60" departLane="best" departSpeed="max" from="E21" to="E18.410"/>
    <trip id="res_veh235" type="res_veh_passenger" depart="564.00" departLane="best" departSpeed="max" from="E18" to="E3"/>
    <trip id="res_veh236" type="res_veh_passenger" depart="566.40" departLane="best" departSpeed="max" from="E18" to="E20"/>
    <trip id="res_veh237" type="res_veh_passenger" depart="568.80" departLane="best" departSpeed="max" from="E18" to="E32"/>
    <trip id="res_veh238" type="res_veh_passenger" depart="571.20" departLane="best" departSpeed="max" from="E21" to="E30.558"/>
    <trip id="res_veh240" type="res_veh_passenger" depart="576.00" departLane="best" departSpeed="max" from="E18" to="E18.410"/>
    <trip id="res_veh241" type="res_veh_passenger" depart="578.40" departLane="best" departSpeed="max" from="E18" to="E31.622"/>
    <trip id="res_veh242" type="res_veh_passenger" depart="580.80" departLane="best" departSpeed="max" from="E21" to="E32"/>
    <trip id="res_veh244" type="res_veh_passenger" depart="585.60" departLane="best" departSpeed="max" from="E21" to="E3"/>
    <trip id="res_veh245" type="res_veh_passenger" depart="588.00" departLane="best" departSpeed="max" from="E18" to="E20"/>
    <trip id="res_veh246" type="res_veh_passenger" depart="590.40" departLane="best" departSpeed="max" from="E18" to="E18.410"/>
    <trip id="res_veh248" type="res_veh_passenger" depart="595.20" departLane="best" departSpeed="max" from="E18" to="E20"/>
    <trip id="res_veh250" type="res_veh_passenger" depart="600.00" departLane="best" departSpeed="max" from="E21" to="E18.410"/>
    <trip id="res_veh251" type="res_veh_passenger" depart="602.40" departLane="best" departSpeed="max" from="E18" to="E3"/>
    <trip id="res_veh253" type="res_veh_passenger" depart="607.20" departLane="best" departSpeed="max" from="E18" to="E22.488"/>
    <trip id="res_veh254" type="res_veh_passenger" depart="609.60" departLane="best" departSpeed="max" from="E18" to="E22.488"/>
    <trip id="res_veh256" type="res_veh_passenger" depart="614.40" departLane="best" departSpeed="max" from="E21" to="E22.488"/>
    <trip id="res_veh258" type="res_veh_passenger" depart="619.20" departLane="best" departSpeed="max" from="E18" to="E18.410"/>
    <trip id="res_veh259" type="res_veh_passenger" depart="621.60" departLane="best" departSpeed="max" from="E18" to="E3"/>
    <trip id="res_veh263" type="res_veh_passenger" depart="631.20" departLane="best" departSpeed="max" from="E31" to="E20"/>
    <trip id="res_veh264" type="res_veh_passenger" depart="633.60" departLane="best" departSpeed="max" from="E18" to="E20"/>
    <trip id="res_veh268" type="res_veh_passenger" depart="643.20" departLane="best" departSpeed="max" from="E18" to="E3"/>
    <trip id="res_veh269" type="res_veh_passenger" depart="645.60" departLane="best" departSpeed="max" from="E21" to="E18.410"/>
    <trip id="res_veh270" type="res_veh_passenger" depart="648.00" departLane="best" departSpeed="max" from="E21" to="E32"/>
    <trip id="res_veh271" type="res_veh_passenger" depart="650.40" departLane="best" departSpeed="max" from="E18" to="E18.410"/>
    <trip id="res_veh274" type="res_veh_passenger" depart="657.60" departLane="best" departSpeed="max" from="E21" to="E18.410"/>
    <trip id="res_veh275" type="res_veh_passenger" depart="660.00" departLane="best" departSpeed="max" from="E21" to="E30.558"/>
    <trip id="res_veh276" type="res_veh_passenger" depart="662.40" departLane="best" departSpeed="max" from="E18" to="E31.622"/>
    <trip id="res_veh277" type="res_veh_passenger" depart="664.80" departLane="best" departSpeed="max" from="E21" to="E3"/>
    <trip id="res_veh278" type="res_veh_passenger" depart="667.20" departLane="best" departSpeed="max" from="E18" to="E32"/>
    <trip id="res_veh279" type="res_veh_passenger" depart="669.60" departLane="best" departSpeed="max" from="E21" to="E22"/>
    <trip id="res_veh281" type="res_veh_passenger" depart="674.40" departLane="best" departSpeed="max" from="E21" to="E22"/>
    <trip id="res_veh283" type="res_veh_passenger" depart="679.20" departLane="best" departSpeed="max" from="E18" to="E32"/>
    <trip id="res_veh285" type="res_veh_passenger" depart="684.00" departLane="best" departSpeed="max" from="E21" to="E22.488"/>
    <trip id="res_veh286" type="res_veh_passenger" depart="686.40" departLane="best" departSpeed="max" from="E21" to="E32"/>
    <trip id="res_veh287" type="res_veh_passenger" depart="688.80" departLane="best" departSpeed="max" from="E18" to="E31.622"/>
    <trip id="res_veh288" type="res_veh_passenger" depart="691.20" departLane="best" departSpeed="max" from="E21" to="E22.488"/>
    <trip id="res_veh290" type="res_veh_passenger" depart="696.00" departLane="best" departSpeed="max" from="E18" to="E31.622"/>
    <trip id="res_veh291" type="res_veh_passenger" depart="698.40" departLane="best" departSpeed="max" from="E21" to="E18.410"/>
    <trip id="res_veh293" type="res_veh_passenger" depart="703.20" departLane="best" departSpeed="max" from="E21" to="E3"/>
    <trip id="res_veh294" type="res_veh_passenger" depart="705.60" departLane="best" departSpeed="max" from="E18" to="E18.410"/>
    <trip id="res_veh296" type="res_veh_passenger" depart="710.40" departLane="best" departSpeed="max" from="E18" to="E31.622"/>
    <trip id="res_veh297" type="res_veh_passenger" depart="712.80" departLane="best" departSpeed="max" from="E18" to="E32"/>
    <trip id="res_veh298" type="res_veh_passenger" depart="715.20" departLane="best" departSpeed="max" from="E21" to="E22"/>
    <trip id="res_veh299" type="res_veh_passenger" depart="717.60" departLane="best" departSpeed="max" from="E18" to="E32"/>
    <trip id="res_veh302" type="res_veh_passenger" depart="724.80" departLane="best" departSpeed="max" from="E21" to="E30.558"/>
    <trip id="res_veh304" type="res_veh_passenger" depart="729.60" departLane="best" departSpeed="max" from="E18" to="E20"/>