<?xml version="1.0" encoding="UTF-8"?>

<!-- generated on 2025-07-26 21:04:25 by Eclipse SUMO duarouter Version 1.22.0
<duarouterConfiguration xmlns:xsi="http://www.w3.org/2001/XMLSchema-instance" xsi:noNamespaceSchemaLocation="http://sumo.dlr.de/xsd/duarouterConfiguration.xsd">

    <input>
        <net-file value="osm.net.xml.gz"/>
        <route-files value="osm.res_truck.trips.xml"/>
    </input>

    <output>
        <output-file value="osm.res_truck.rou.xml"/>
    </output>

</duarouterConfiguration>
-->

<routes xmlns:xsi="http://www.w3.org/2001/XMLSchema-instance" xsi:noNamespaceSchemaLocation="http://sumo.dlr.de/xsd/routes_file.xsd">
    <vType id="res_truck_truck" vClass="truck"/>
    <vehicle id="res_truck0" type="res_truck_truck" depart="0.00" departLane="best" departSpeed="max">
        <route edges="E21 E22 E18.410"/>
    </vehicle>
    <vehicle id="res_truck1" type="res_truck_truck" depart="18.00" departLane="best" departSpeed="max">
        <route edges="E18 E31.622 E20"/>
    </vehicle>
    <vehicle id="res_truck2" type="res_truck_truck" depart="36.00" departLane="best" departSpeed="max">
        <route edges="E21 E22 E30.558"/>
    </vehicle>
    <vehicle id="res_truck3" type="res_truck_truck" depart="54.00" departLane="best" departSpeed="max">
        <route edges="E21 E22 E18.410"/>
    </vehicle>
    <vehicle id="res_truck4" type="res_truck_truck" depart="72.00" departLane="best" departSpeed="max">
        <route edges="E18 E18.410"/>
    </vehicle>
    <vehicle id="res_truck5" type="res_truck_truck" depart="90.00" departLane="best" departSpeed="max">
        <route edges="E18 E31.622 E3"/>
    </vehicle>
    <vehicle id="res_truck6" type="res_truck_truck" depart="108.00" departLane="best" departSpeed="max">
        <route edges="E18 E31.622 E20"/>
    </vehicle>
    <vehicle id="res_truck7" type="res_truck_truck" depart="126.00" departLane="best" departSpeed="max">
        <route edges="E21 E3"/>
    </vehicle>
    <vehicle id="res_truck8" type="res_truck_truck" depart="144.00" departLane="best" departSpeed="max">
        <route edges="E18 E31.622 E3"/>
    </vehicle>
    <vehicle id="res_truck9" type="res_truck_truck" depart="162.00" departLane="best" departSpeed="max">
        <route edges="E21 E22 E18.410"/>
    </vehicle>
    <vehicle id="res_truck10" type="res_truck_truck" depart="180.00" departLane="best" departSpeed="max">
        <route edges="E21 E22 E30.558"/>
    </vehicle>
    <vehicle id="res_truck11" type="res_truck_truck" depart="198.00" departLane="best" departSpeed="max">
        <route edges="E18 E31.622 E20"/>
    </vehicle>
    <vehicle id="res_truck13" type="res_truck_truck" depart="234.00" departLane="best" departSpeed="max">
        <route edges="E18 E18.410"/>
    </vehicle>
    <vehicle id="res_truck14" type="res_truck_truck" depart="252.00" departLane="best" departSpeed="max">
        <route edges="E21 E3"/>
    </vehicle>
    <vehicle id="res_truck15" type="res_truck_truck" depart="270.00" departLane="best" departSpeed="max">
        <route edges="E21 E22 E30.558"/>
    </vehicle>
    <vehicle id="res_truck16" type="res_truck_truck" depart="288.00" departLane="best" departSpeed="max">
        <route edges="E21 E32"/>
    </vehicle>
    <vehicle id="res_truck17" type="res_truck_truck" depart="306.00" departLane="best" departSpeed="max">
        <route edges="E18 E31.622 E3"/>
    </vehicle>
    <vehicle id="res_truck18" type="res_truck_truck" depart="324.00" departLane="best" departSpeed="max">
        <route edges="E21 E3"/>
    </vehicle>
    <vehicle id="res_truck19" type="res_truck_truck" depart="342.00" departLane="best" departSpeed="max">
        <route edges="E21 E3"/>
    </vehicle>
    <vehicle id="res_truck20" type="res_truck_truck" depart="360.00" departLane="best" departSpeed="max">
        <route edges="E21 E22 E18.410"/>
    </vehicle>
    <vehicle id="res_truck22" type="res_truck_truck" depart="396.00" departLane="best" departSpeed="max">
        <route edges="E18 E31.622 E20"/>
    </vehicle>
    <vehicle id="res_truck24" type="res_truck_truck" depart="432.00" departLane="best" departSpeed="max">
        <route edges="E21 E22"/>
    </vehicle>
    <vehicle id="res_truck25" type="res_truck_truck" depart="450.00" departLane="best" departSpeed="max">
        <route edges="E18 E31.622 E20"/>
    </vehicle>
    <vehicle id="res_truck26" type="res_truck_truck" depart="468.00" departLane="best" departSpeed="max">
        <route edges="E18 E31.622 E32"/>
    </vehicle>
    <vehicle id="res_truck27" type="res_truck_truck" depart="486.00" departLane="best" departSpeed="max">
        <route edges="E21 E3"/>
    </vehicle>
    <vehicle id="res_truck29" type="res_truck_truck" depart="522.00" departLane="best" departSpeed="max">
        <route edges="E18 E22.488"/>
    </vehicle>
    <vehicle id="res_truck30" type="res_truck_truck" depart="540.00" departLane="best" departSpeed="max">
        <route edges="E31 E30.558"/>
    </vehicle>
    <vehicle id="res_truck31" type="res_truck_truck" depart="558.00" departLane="best" departSpeed="max">
        <route edges="E21 E22 E30.558"/>
    </vehicle>
    <vehicle id="res_truck33" type="res_truck_truck" depart="594.00" departLane="best" departSpeed="max">
        <route edges="E18 E18.410"/>
    </vehicle>
    <vehicle id="res_truck35" type="res_truck_truck" depart="630.00" departLane="best" departSpeed="max">
        <route edges="E18 E31.622 E32"/>
    </vehicle>
    <vehicle id="res_truck36" type="res_truck_truck" depart="648.00" departLane="best" departSpeed="max">
        <route edges="E21 E22"/>
    </vehicle>
    <vehicle id="res_truck37" type="res_truck_truck" depart="666.00" departLane="best" departSpeed="max">
        <route edges="E21 E22 E22.488"/>
    </vehicle>
    <vehicle id="res_truck39" type="res_truck_truck" depart="702.00" departLane="best" departSpeed="max">
        <route edges="E18 E31.622 E20"/>
    </vehicle>
    <vehicle id="res_truck40" type="res_truck_truck" depart="720.00" departLane="best" departSpeed="max">
        <route edges="E21 E22"/>
    </vehicle>
    <vehicle id="res_truck41" type="res_truck_truck" depart="738.00" departLane="best" departSpeed="max">
        <route edges="E21 E32"/>
    </vehicle>
    <vehicle id="res_truck42" type="res_truck_truck" depart="756.00" departLane="best" departSpeed="max">
        <route edges="E18 E31.622 E20"/>
    </vehicle>
    <vehicle id="res_truck43" type="res_truck_truck" depart="774.00" departLane="best" departSpeed="max">
        <route edges="E31 E31.622 E3"/>
    </vehicle>
    <vehicle id="res_truck44" type="res_truck_truck" depart="792.00" departLane="best" departSpeed="max">
        <route edges="E18 E18.410"/>
    </vehicle>
    <vehicle id="res_truck46" type="res_truck_truck" depart="828.00" departLane="best" departSpeed="max">
        <route edges="E21 E22 E22.488"/>
    </vehicle>
    <vehicle id="res_truck47" type="res_truck_truck" depart="846.00" departLane="best" departSpeed="max">
        <route edges="E18 E22.488"/>
    </vehicle>
    <vehicle id="res_truck48" type="res_truck_truck" depart="864.00" departLane="best" departSpeed="max">
        <route edges="E31 E31.622 E3"/>
    </vehicle>
    <vehicle id="res_truck49" type="res_truck_truck" depart="882.00" departLane="best" departSpeed="max">
        <route edges="E31 E31.622"/>
    </vehicle>
    <vehicle id="res_truck51" type="res_truck_truck" depart="918.00" departLane="best" departSpeed="max">
        <route edges="E21 E3"/>
    </vehicle>
    <vehicle id="res_truck53" type="res_truck_truck" depart="954.00" departLane="best" departSpeed="max">
        <route edges="E18 E22.488"/>
    </vehicle>
    <vehicle id="res_truck54" type="res_truck_truck" depart="972.00" departLane="best" departSpeed="max">
        <route edges="E21 E32"/>
    </vehicle>
    <vehicle id="res_truck55" type="res_truck_truck" depart="990.00" departLane="best" departSpeed="max">
        <route edges="E21 E22"/>
    </vehicle>
    <vehicle id="res_truck57" type="res_truck_truck" depart="1026.00" departLane="best" departSpeed="max">
        <route edges="E31 E31.622"/>
    </vehicle>
    <vehicle id="res_truck60" type="res_truck_truck" depart="1080.00" departLane="best" departSpeed="max">
        <route edges="E21 E3"/>
    </vehicle>
    <vehicle id="res_truck61" type="res_truck_truck" depart="1098.00" departLane="best" departSpeed="max">
        <route edges="E21 E3"/>
    </vehicle>
    <vehicle id="res_truck63" type="res_truck_truck" depart="1134.00" departLane="best" departSpeed="max">
        <route edges="E18 E31.622 E32"/>
    </vehicle>
    <vehicle id="res_truck65" type="res_truck_truck" depart="1170.00" departLane="best" departSpeed="max">
        <route edges="E18 E18.410"/>
    </vehicle>
    <vehicle id="res_truck66" type="res_truck_truck" depart="1188.00" departLane="best" departSpeed="max">
        <route edges="E21 E32"/>
    </vehicle>
    <vehicle id="res_truck67" type="res_truck_truck" depart="1206.00" departLane="best" departSpeed="max">
        <route edges="E18 E22.488"/>
    </vehicle>
    <vehicle id="res_truck68" type="res_truck_truck" depart="1224.00" departLane="best" departSpeed="max">
        <route edges="E18 E31.622"/>
    </vehicle>
    <vehicle id="res_truck70" type="res_truck_truck" depart="1260.00" departLane="best" departSpeed="max">
        <route edges="E21 E3"/>
    </vehicle>
    <vehicle id="res_truck71" type="res_truck_truck" depart="1278.00" departLane="best" departSpeed="max">
        <route edges="E18 E31.622"/>
    </vehicle>
    <vehicle id="res_truck72" type="res_truck_truck" depart="1296.00" departLane="best" departSpeed="max">
        <route edges="E18 E31.622 E20"/>
    </vehicle>
    <vehicle id="res_truck73" type="res_truck_truck" depart="1314.00" departLane="best" departSpeed="max">
        <route edges="E21 E22 E30.558"/>
    </vehicle>
    <vehicle id="res_truck75" type="res_truck_truck" depart="1350.00" departLane="best" departSpeed="max">
        <route edges="E31 E30.558"/>
    </vehicle>
    <vehicle id="res_truck76" type="res_truck_truck" depart="1368.00" departLane="best" departSpeed="max">
        <route edges="E18 E31.622 E3"/>
    </vehicle>
    <vehicle id="res_truck77" type="res_truck_truck" depart="1386.00" departLane="best" departSpeed="max">
        <route edges="E18 E31.622 E20"/>
    </vehicle>
    <vehicle id="res_truck78" type="res_truck_truck" depart="1404.00" departLane="best" departSpeed="max">
        <route edges="E18 E31.622 E3"/>
    </vehicle>
    <vehicle id="res_truck79" type="res_truck_truck" depart="1422.00" departLane="best" departSpeed="max">
        <route edges="E18 E31.622 E20"/>
    </vehicle>
    <vehicle id="res_truck81" type="res_truck_truck" depart="1458.00" departLane="best" departSpeed="max">
        <route edges="E18 E31.622 E32"/>
    </vehicle>
    <vehicle id="res_truck82" type="res_truck_truck" depart="1476.00" departLane="best" departSpeed="max">
        <route edges="E21 E22 E18.410"/>
    </vehicle>
    <vehicle id="res_truck84" type="res_truck_truck" depart="1512.00" departLane="best" departSpeed="max">
        <route edges="E18 E31.622 E20"/>
    </vehicle>
    <vehicle id="res_truck85" type="res_truck_truck" depart="1530.00" departLane="best" departSpeed="max">
        <route edges="E31 E31.622 E3"/>
    </vehicle>
    <vehicle id="res_truck88" type="res_truck_truck" depart="1584.00" departLane="best" departSpeed="max">
        <route edges="E18 E22.488"/>
    </vehicle>
    <vehicle id="res_truck89" type="res_truck_truck" depart="1602.00" departLane="best" departSpeed="max">
        <route edges="E18 E22.488"/>
    </vehicle>
    <vehicle id="res_truck90" type="res_truck_truck" depart="1620.00" departLane="best" departSpeed="max">
        <route edges="E21 E22 E30.558"/>
    </vehicle>
    <vehicle id="res_truck91" type="res_truck_truck" depart="1638.00" departLane="best" departSpeed="max">
        <route edges="E31 E18.410"/>
    </vehicle>
    <vehicle id="res_truck94" type="res_truck_truck" depart="1692.00" departLane="best" departSpeed="max">
        <route edges="E18 E22.488"/>
    </vehicle>
    <vehicle id="res_truck96" type="res_truck_truck" depart="1728.00" departLane="best" departSpeed="max">
        <route edges="E18 E31.622 E32"/>
    </vehicle>
    <vehicle id="res_truck97" type="res_truck_truck" depart="1746.00" departLane="best" departSpeed="max">
        <route edges="E18 E31.622"/>
    </vehicle>
    <vehicle id="res_truck98" type="res_truck_truck" depart="1764.00" departLane="best" departSpeed="max">
        <route edges="E21 E22 E18.410"/>
    </vehicle>
    <vehicle id="res_truck99" type="res_truck_truck" depart="1782.00" departLane="best" departSpeed="max">
        <route edges="E31 E31.622"/>
    </vehicle>
    <vehicle id="res_truck100" type="res_truck_truck" depart="1800.00" departLane="best" departSpeed="max">
        <route edges="E31 E31.622 E32"/>
    </vehicle>
    <vehicle id="res_truck103" type="res_truck_truck" depart="1854.00" departLane="best" departSpeed="max">
        <route edges="E18 E18.410"/>
    </vehicle>
    <vehicle id="res_truck104" type="res_truck_truck" depart="1872.00" departLane="best" departSpeed="max">
        <route edges="E18 E31.622 E32"/>
    </vehicle>
    <vehicle id="res_truck105" type="res_truck_truck" depart="1890.00" departLane="best" departSpeed="max">
        <route edges="E18 E31.622"/>
    </vehicle>
    <vehicle id="res_truck106" type="res_truck_truck" depart="1908.00" departLane="best" departSpeed="max">
        <route edges="E21 E22 E22.488"/>
    </vehicle>
    <vehicle id="res_truck107" type="res_truck_truck" depart="1926.00" departLane="best" departSpeed="max">
        <route edges="E31 E31.622 E32"/>
    </vehicle>
    <vehicle id="res_truck108" type="res_truck_truck" depart="1944.00" departLane="best" departSpeed="max">
        <route edges="E21 E22 E30.558"/>
    </vehicle>
    <vehicle id="res_truck110" type="res_truck_truck" depart="1980.00" departLane="best" departSpeed="max">
        <route edges="E31 E31.622 E3"/>
    </vehicle>
    <vehicle id="res_truck111" type="res_truck_truck" depart="1998.00" departLane="best" departSpeed="max">
        <route edges="E21 E22 E30.558"/>
    </vehicle>
    <vehicle id="res_truck112" type="res_truck_truck" depart="2016.00" departLane="best" departSpeed="max">
        <route edges="E18 E31.622 E3"/>
    </vehicle>
    <vehicle id="res_truck114" type="res_truck_truck" depart="2052.00" departLane="best" departSpeed="max">
        <route edges="E18 E31.622 E32"/>
    </vehicle>
    <vehicle id="res_truck115" type="res_truck_truck" depart="2070.00" departLane="best" departSpeed="max">
        <route edges="E18 E31.622 E20"/>
    </vehicle>
    <vehicle id="res_truck116" type="res_truck_truck" depart="2088.00" departLane="best" departSpeed="max">
        <route edges="E21 E22 E30.558"/>
    </vehicle>
    <vehicle id="res_truck117" type="res_truck_truck" depart="2106.00" departLane="best" departSpeed="max">
        <route edges="E18 E18.410"/>
    </vehicle>
    <vehicle id="res_truck119" type="res_truck_truck" depart="2142.00" departLane="best" departSpeed="max">
        <route edges="E21 E3"/>
    </vehicle>
    <vehicle id="res_truck120" type="res_truck_truck" depart="2160.00" departLane="best" departSpeed="max">
        <route edges="E18 E31.622 E3"/>
    </vehicle>
    <vehicle id="res_truck121" type="res_truck_truck" depart="2178.00" departLane="best" departSpeed="max">
        <route edges="E21 E32"/>
    </vehicle>
    <vehicle id="res_truck123" type="res_truck_truck" depart="2214.00" departLane="best" departSpeed="max">
        <route edges="E18 E22.488"/>
    </vehicle>
    <vehicle id="res_truck124" type="res_truck_truck" depart="2232.00" departLane="best" departSpeed="max">
        <route edges="E21 E22"/>
    </vehicle>
    <vehicle id="res_truck125" type="res_truck_truck" depart="2250.00" departLane="best" departSpeed="max">
        <route edges="E18 E31.622"/>
    </vehicle>
    <vehicle id="res_truck126" type="res_truck_truck" depart="2268.00" departLane="best" departSpeed="max">
        <route edges="E18 E22.488"/>
    </vehicle>
    <vehicle id="res_truck127" type="res_truck_truck" depart="2286.00" departLane="best" departSpeed="max">
        <route edges="E31 E31.622 E32"/>
    </vehicle>
    <vehicle id="res_truck128" type="res_truck_truck" depart="2304.00" departLane="best" departSpeed="max">
        <route edges="E18 E31.622 E20"/>
    </vehicle>
    <vehicle id="res_truck129" type="res_truck_truck" depart="2322.00" departLane="best" departSpeed="max">
        <route edges="E18 E31.622 E32"/>
    </vehicle>
    <vehicle id="res_truck130" type="res_truck_truck" depart="2340.00" departLane="best" departSpeed="max">
        <route edges="E21 E32"/>
    </vehicle>
    <vehicle id="res_truck131" type="res_truck_truck" depart="2358.00" departLane="best" departSpeed="max">
        <route edges="E18 E31.622 E20"/>
    </vehicle>
    <vehicle id="res_truck132" type="res_truck_truck" depart="2376.00" departLane="best" departSpeed="max">
        <route edges="E21 E22 E30.558"/>
    </vehicle>
    <vehicle id="res_truck133" type="res_truck_truck" depart="2394.00" departLane="best" departSpeed="max">
        <route edges="E21 E32"/>
    </vehicle>
    <vehicle id="res_truck134" type="res_truck_truck" depart="2412.00" departLane="best" departSpeed="max">
        <route edges="E21 E22 E18.410"/>
    </vehicle>
    <vehicle id="res_truck135" type="res_truck_truck" depart="2430.00" departLane="best" departSpeed="max">
        <route edges="E21 E22"/>
    </vehicle>
    <vehicle id="res_truck136" type="res_truck_truck" depart="2448.00" departLane="best" departSpeed="max">
        <route edges="E21 E32"/>
    </vehicle>
    <vehicle id="res_truck137" type="res_truck_truck" depart="2466.00" departLane="best" departSpeed="max">
        <route edges="E18 E18.410"/>
    </vehicle>
    <vehicle id="res_truck138" type="res_truck_truck" depart="2484.00" departLane="best" departSpeed="max">
        <route edges="E18 E31.622 E3"/>
    </vehicle>
    <vehicle id="res_truck139" type="res_truck_truck" depart="2502.00" departLane="best" departSpeed="max">
        <route edges="E18 E31.622 E3"/>
    </vehicle>
    <vehicle id="res_truck141" type="res_truck_truck" depart="2538.00" departLane="best" departSpeed="max">
        <route edges="E21 E22"/>
    </vehicle>
    <vehicle id="res_truck142" type="res_truck_truck" depart="2556.00" departLane="best" departSpeed="max">
        <route edges="E21 E32"/>
    </vehicle>
    <vehicle id="res_truck143" type="res_truck_truck" depart="2574.00" departLane="best" departSpeed="max">
        <route edges="E21 E22 E18.410"/>
    </vehicle>
    <vehicle id="res_truck145" type="res_truck_truck" depart="2610.00" departLane="best" departSpeed="max">
        <route edges="E18 E31.622"/>
    </vehicle>
    <vehicle id="res_truck146" type="res_truck_truck" depart="2628.00" departLane="best" departSpeed="max">
        <route edges="E21 E22"/>
    </vehicle>
    <vehicle id="res_truck147" type="res_truck_truck" depart="2646.00" departLane="best" departSpeed="max">
        <route edges="E21 E3"/>
    </vehicle>
    <vehicle id="res_truck148" type="res_truck_truck" depart="2664.00" departLane="best" departSpeed="max">
        <route edges="E18 E18.410"/>
    </vehicle>
    <vehicle id="res_truck149" type="res_truck_truck" depart="2682.00" departLane="best" departSpeed="max">
        <route edges="E18 E31.622 E32"/>
    </vehicle>
    <vehicle id="res_truck150" type="res_truck_truck" depart="2700.00" departLane="best" departSpeed="max">
        <route edges="E31 E31.622 E3"/>
    </vehicle>
    <vehicle id="res_truck151" type="res_truck_truck" depart="2718.00" departLane="best" departSpeed="max">
        <route edges="E21 E3"/>
    </vehicle>
    <vehicle id="res_truck152" type="res_truck_truck" depart="2736.00" departLane="best" departSpeed="max">
        <route edges="E18 E31.622 E20"/>
    </vehicle>
    <vehicle id="res_truck153" type="res_truck_truck" depart="2754.00" departLane="best" departSpeed="max">
        <route edges="E18 E31.622 E32"/>
    </vehicle>
    <vehicle id="res_truck156" type="res_truck_truck" depart="2808.00" departLane="best" departSpeed="max">
        <route edges="E18 E18.410"/>
    </vehicle>
    <vehicle id="res_truck157" type="res_truck_truck" depart="2826.00" departLane="best" departSpeed="max">
        <route edges="E21 E32"/>
    </vehicle>
    <vehicle id="res_truck158" type="res_truck_truck" depart="2844.00" departLane="best" departSpeed="max">
        <route edges="E18 E31.622 E3"/>
    </vehicle>
    <vehicle id="res_truck159" type="res_truck_truck" depart="2862.00" departLane="best" departSpeed="max">
        <route edges="E18 E31.622 E32"/>
    </vehicle>
    <vehicle id="res_truck160" type="res_truck_truck" depart="2880.00" departLane="best" departSpeed="max">
        <route edges="E21 E32"/>
    </vehicle>
    <vehicle id="res_truck161" type="res_truck_truck" depart="2898.00" departLane="best" departSpeed="max">
        <route edges="E21 E32"/>
    </vehicle>
    <vehicle id="res_truck163" type="res_truck_truck" depart="2934.00" departLane="best" departSpeed="max">
        <route edges="E18 E31.622 E32"/>
    </vehicle>
    <vehicle id="res_truck165" type="res_truck_truck" depart="2970.00" departLane="best" departSpeed="max">
        <route edges="E21 E22"/>
    </vehicle>
    <vehicle id="res_truck166" type="res_truck_truck" depart="2988.00" departLane="best" departSpeed="max">
        <route edges="E21 E22 E18.410"/>
    </vehicle>
    <vehicle id="res_truck168" type="res_truck_truck" depart="3024.00" departLane="best" departSpeed="max">
        <route edges="E18 E31.622"/>
    </vehicle>
    <vehicle id="res_truck169" type="res_truck_truck" depart="3042.00" departLane="best" departSpeed="max">
        <route edges="E21 E22"/>
    </vehicle>
    <vehicle id="res_truck171" type="res_truck_truck" depart="3078.00" departLane="best" departSpeed="max">
        <route edges="E18 E31.622 E20"/>
    </vehicle>
    <vehicle id="res_truck172" type="res_truck_truck" depart="3096.00" departLane="best" departSpeed="max">
        <route edges="E18 E31.622"/>
    </vehicle>
    <vehicle id="res_truck174" type="res_truck_truck" depart="3132.00" departLane="best" departSpeed="max">
        <route edges="E21 E22 E22.488"/>
    </vehicle>
    <vehicle id="res_truck175" type="res_truck_truck" depart="3150.00" departLane="best" departSpeed="max">
        <route edges="E31 E31.622 E3"/>
    </vehicle>
    <vehicle id="res_truck176" type="res_truck_truck" depart="3168.00" departLane="best" departSpeed="max">
        <route edges="E31 E18.410"/>
    </vehicle>
    <vehicle id="res_truck177" type="res_truck_truck" depart="3186.00" departLane="best" departSpeed="max">
        <route edges="E31 E31.622 E20"/>
    </vehicle>
    <vehicle id="res_truck179" type="res_truck_truck" depart="3222.00" departLane="best" departSpeed="max">
        <route edges="E18 E22.488"/>
    </vehicle>
    <vehicle id="res_truck180" type="res_truck_truck" depart="3240.00" departLane="best" departSpeed="max">
        <route edges="E21 E22"/>
    </vehicle>
    <vehicle id="res_truck181" type="res_truck_truck" depart="3258.00" departLane="best" departSpeed="max">
        <route edges="E21 E3"/>
    </vehicle>
    <vehicle id="res_truck182" type="res_truck_truck" depart="3276.00" departLane="best" departSpeed="max">
        <route edges="E18 E31.622 E3"/>
    </vehicle>
    <vehicle id="res_truck184" type="res_truck_truck" depart="3312.00" departLane="best" departSpeed="max">
        <route edges="E18 E31.622 E32"/>
    </vehicle>
    <vehicle id="res_truck185" type="res_truck_truck" depart="3330.00" departLane="best" departSpeed="max">
        <route edges="E21 E22 E30.558"/>
    </vehicle>
    <vehicle id="res_truck186" type="res_truck_truck" depart="3348.00" departLane="best" departSpeed="max">
        <route edges="E21 E22 E30.558"/>
    </vehicle>
    <vehicle id="res_truck187" type="res_truck_truck" depart="3366.00" departLane="best" departSpeed="max">
        <route edges="E18 E18.410"/>
    </vehicle>
    <vehicle id="res_truck188" type="res_truck_truck" depart="3384.00" departLane="best" departSpeed="max">
        <route edges="E21 E22"/>
    </vehicle>
    <vehicle id="res_truck189" type="res_truck_truck" depart="3402.00" departLane="best" departSpeed="max">
        <route edges="E18 E31.622"/>
    </vehicle>
    <vehicle id="res_truck190" type="res_truck_truck" depart="3420.00" departLane="best" departSpeed="max">
        <route edges="E21 E22"/>
    </vehicle>
    <vehicle id="res_truck191" type="res_truck_truck" depart="3438.00" departLane="best" departSpeed="max">
        <route edges="E18 E22.488"/>
    </vehicle>
    <vehicle id="res_truck193" type="res_truck_truck" depart="3474.00" departLane="best" departSpeed="max">
        <route edges="E18 E22.488"/>
    </vehicle>
    <vehicle id="res_truck194" type="res_truck_truck" depart="3492.00" departLane="best" departSpeed="max">
        <route edges="E31 E30.558"/>
    </vehicle>
    <vehicle id="res_truck195" type="res_truck_truck" depart="3510.00" departLane="best" departSpeed="max">
        <route edges="E31 E31.622 E3"/>
    </vehicle>
    <vehicle id="res_truck196" type="res_truck_truck" depart="3528.00" departLane="best" departSpeed="max">
        <route edges="E18 E31.622 E3"/>
    </vehicle>
    <vehicle id="res_truck198" type="res_truck_truck" depart="3564.00" departLane="best" departSpeed="max">
        <route edges="E18 E31.622 E3"/>
    </vehicle>
    <vehicle id="res_truck199" type="res_truck_truck" depart="3582.00" departLane="best" departSpeed="max">
        <route edges="E21 E22 E22.488"/>
    </vehicle>
</routes>
