<?xml version="1.0" encoding="UTF-8"?>

<!-- generated on 2025-07-26 20:58:14 by Eclipse SUMO netedit Version 1.22.0
-->

<additional xmlns:xsi="http://www.w3.org/2001/XMLSchema-instance" xsi:noNamespaceSchemaLocation="http://sumo.dlr.de/xsd/additional_file.xsd">
    <!-- Detectors -->
    <laneAreaDetector id="e2_0" lane="E3_1" pos="432.00" length="100.00" period="300.00" file="e2_0.xml" friendlyPos="1"/>
    <laneAreaDetector id="e2_1" lane="E3_2" pos="431.00" length="100.00" period="300.00" file="e2_1.xml" friendlyPos="1"/>
    <laneAreaDetector id="e2_16" lane="E23.356_2" pos="337.00" length="100.00" period="300.00" file="e2_16.xml"/>
    <laneAreaDetector id="e2_17" lane="E23.356_1" pos="337.00" length="100.00" period="300.00" file="e2_17.xml"/>
    <laneAreaDetector id="e2_18" lane="E2_2" pos="431.00" length="100.00" period="300.00" file="e2_18.xml"/>
    <laneAreaDetector id="e2_19" lane="E2_1" pos="431.00" length="100.00" period="300.00" file="e2_19.xml"/>
    <laneAreaDetector id="e2_20" lane="E31.622_1" pos="364.00" length="100.00" period="300.00" file="e2_20.xml"/>
    <laneAreaDetector id="e2_21" lane="E31.622_2" pos="364.00" length="100.00" period="300.00" file="e2_21.xml"/>
    <laneAreaDetector id="e2_22" lane="E21_1" pos="1318.18" length="100.00" period="300.00" file="e2_22.xml" friendlyPos="1"/>
    <laneAreaDetector id="e2_23" lane="E21_2" pos="1318.18" length="100.00" period="300.00" file="e2_23.xml" friendlyPos="1"/>
    <laneAreaDetector id="e2_28" lane="E18.410_1" pos="434.00" length="100.00" period="300.00" file="e2_28.xml"/>
    <laneAreaDetector id="e2_29" lane="E18.410_2" pos="434.00" length="100.00" period="300.00" file="e2_29.xml"/>
    <laneAreaDetector id="e2_48" lane="E30_2" pos="434.00" length="100.00" period="300.00" file="e2_48.xml"/>
    <laneAreaDetector id="e2_49" lane="E30_1" pos="434.00" length="100.00" period="300.00" file="e2_49.xml"/>
    <laneAreaDetector id="e2_50" lane="E31_1" pos="1567.19" length="100.00" period="300.00" file="e2_50.xml"/>
    <laneAreaDetector id="e2_51" lane="E31_2" pos="1567.19" length="100.00" period="300.00" file="e2_51.xml"/>
    <laneAreaDetector id="e2_52" lane="E22_2" pos="364.00" length="100.00" period="300.00" file="e2_52.xml" friendlyPos="1"/>
    <laneAreaDetector id="e2_53" lane="E22_1" pos="364.00" length="100.00" period="300.00" file="e2_53.xml" friendlyPos="1"/>
    <laneAreaDetector id="e2_54" lane="E18_1" pos="1316.70" length="100.00" period="300.00" file="e2_54.xml" friendlyPos="1"/>
    <laneAreaDetector id="e2_55" lane="E18_2" pos="1316.70" length="100.00" period="300.00" file="e2_55.xml" friendlyPos="1"/>
    <laneAreaDetector id="e2_56" lane="E32_1" pos="337.00" length="100.00" period="300.00" file="e2_56.xml"/>
    <laneAreaDetector id="e2_57" lane="E32_2" pos="337.00" length="100.00" period="300.00" file="e2_57.xml"/>
</additional>
