<?xml version="1.0" encoding="UTF-8"?>

<!-- generated on 2025-07-24 12:08:53.247899 by randomTrips.py v1_23_1+0000-676720d13f6
<configuration>
    <net-file value="osm.net.xml.gz"/>
    <weights-prefix value="random_edge_priority"/>
    <output-trip-file value="osm.res_truck.trips.xml"/>
    <prefix value="res_truck"/>
    <trip-attributes value="departLane='best'"/>
    <fringe-start-attributes value="departSpeed='max'"/>
    <vehicle-class value="truck"/>
    <edge-permission value="truck"/>
    <remove-loops value="True"/>
    <validate value="True"/>
    <insertion-rate value="200.0"/>
</configuration>
-->

<routes xmlns:xsi="http://www.w3.org/2001/XMLSchema-instance" xsi:noNamespaceSchemaLocation="http://sumo.dlr.de/xsd/routes_file.xsd">
    <vType id="res_truck_truck" vClass="truck"/>
    <trip id="res_truck0" depart="0.00" from="E21" to="E14" departLane='best' type="res_truck_truck" departSpeed='max'/>
    <trip id="res_truck1" depart="18.00" from="E21" to="E30" departLane='best' type="res_truck_truck" departSpeed='max'/>
    <trip id="res_truck2" depart="36.00" from="E21" to="E1" departLane='best' type="res_truck_truck" departSpeed='max'/>
    <trip id="res_truck3" depart="54.00" from="E21" to="E25" departLane='best' type="res_truck_truck" departSpeed='max'/>
    <trip id="res_truck4" depart="72.00" from="E21" to="E13" departLane='best' type="res_truck_truck" departSpeed='max'/>
    <trip id="res_truck5" depart="90.00" from="E21" to="E25" departLane='best' type="res_truck_truck" departSpeed='max'/>
    <trip id="res_truck6" depart="108.00" from="E21" to="E28" departLane='best' type="res_truck_truck" departSpeed='max'/>
    <trip id="res_truck7" depart="126.00" from="E21" to="E30" departLane='best' type="res_truck_truck" departSpeed='max'/>
    <trip id="res_truck8" depart="144.00" from="E21" to="E13" departLane='best' type="res_truck_truck" departSpeed='max'/>
    <trip id="res_truck9" depart="162.00" from="E21" to="E17" departLane='best' type="res_truck_truck" departSpeed='max'/>
    <trip id="res_truck10" depart="180.00" from="E21" to="E1" departLane='best' type="res_truck_truck" departSpeed='max'/>
    <trip id="res_truck11" depart="198.00" from="E21" to="E3" departLane='best' type="res_truck_truck" departSpeed='max'/>
    <trip id="res_truck12" depart="216.00" from="E21" to="E32" departLane='best' type="res_truck_truck" departSpeed='max'/>
    <trip id="res_truck13" depart="234.00" from="E21" to="E8" departLane='best' type="res_truck_truck" departSpeed='max'/>
    <trip id="res_truck14" depart="252.00" from="E21" to="E28" departLane='best' type="res_truck_truck" departSpeed='max'/>
    <trip id="res_truck15" depart="270.00" from="E21" to="E3" departLane='best' type="res_truck_truck" departSpeed='max'/>
    <trip id="res_truck16" depart="288.00" from="E21" to="E28" departLane='best' type="res_truck_truck" departSpeed='max'/>
    <trip id="res_truck17" depart="306.00" from="E21" to="E15" departLane='best' type="res_truck_truck" departSpeed='max'/>
    <trip id="res_truck18" depart="324.00" from="E21" to="E14" departLane='best' type="res_truck_truck" departSpeed='max'/>
    <trip id="res_truck19" depart="342.00" from="E21" to="E15" departLane='best' type="res_truck_truck" departSpeed='max'/>
    <trip id="res_truck20" depart="360.00" from="E21" to="E14" departLane='best' type="res_truck_truck" departSpeed='max'/>
    <trip id="res_truck21" depart="378.00" from="E21" to="E3" departLane='best' type="res_truck_truck" departSpeed='max'/>
    <trip id="res_truck22" depart="396.00" from="E21" to="E32" departLane='best' type="res_truck_truck" departSpeed='max'/>
    <trip id="res_truck23" depart="414.00" from="E21" to="E3" departLane='best' type="res_truck_truck" departSpeed='max'/>
    <trip id="res_truck24" depart="432.00" from="E21" to="E30" departLane='best' type="res_truck_truck" departSpeed='max'/>
    <trip id="res_truck25" depart="450.00" from="E21" to="E4" departLane='best' type="res_truck_truck" departSpeed='max'/>
    <trip id="res_truck26" depart="468.00" from="E21" to="E15" departLane='best' type="res_truck_truck" departSpeed='max'/>
    <trip id="res_truck27" depart="486.00" from="E21" to="E17" departLane='best' type="res_truck_truck" departSpeed='max'/>
    <trip id="res_truck28" depart="504.00" from="E21" to="E22" departLane='best' type="res_truck_truck" departSpeed='max'/>
    <trip id="res_truck29" depart="522.00" from="E21" to="E14" departLane='best' type="res_truck_truck" departSpeed='max'/>
    <trip id="res_truck30" depart="540.00" from="E21" to="E15" departLane='best' type="res_truck_truck" departSpeed='max'/>
    <trip id="res_truck31" depart="558.00" from="E21" to="E6" departLane='best' type="res_truck_truck" departSpeed='max'/>
    <trip id="res_truck32" depart="576.00" from="E21" to="E14" departLane='best' type="res_truck_truck" departSpeed='max'/>
    <trip id="res_truck33" depart="594.00" from="E21" to="E25" departLane='best' type="res_truck_truck" departSpeed='max'/>
    <trip id="res_truck34" depart="612.00" from="E21" to="E3" departLane='best' type="res_truck_truck" departSpeed='max'/>
    <trip id="res_truck35" depart="630.00" from="E21" to="E25" departLane='best' type="res_truck_truck" departSpeed='max'/>
    <trip id="res_truck36" depart="648.00" from="E21" to="E6" departLane='best' type="res_truck_truck" departSpeed='max'/>
    <trip id="res_truck37" depart="666.00" from="E21" to="E32" departLane='best' type="res_truck_truck" departSpeed='max'/>
    <trip id="res_truck38" depart="684.00" from="E21" to="E25" departLane='best' type="res_truck_truck" departSpeed='max'/>
    <trip id="res_truck39" depart="702.00" from="E21" to="E3" departLane='best' type="res_truck_truck" departSpeed='max'/>
    <trip id="res_truck40" depart="720.00" from="E21" to="E8" departLane='best' type="res_truck_truck" departSpeed='max'/>
    <trip id="res_truck41" depart="738.00" from="E21" to="E15" departLane='best' type="res_truck_truck" departSpeed='max'/>
    <trip id="res_truck42" depart="756.00" from="E21" to="E13" departLane='best' type="res_truck_truck" departSpeed='max'/>
    <trip id="res_truck43" depart="774.00" from="E21" to="E6" departLane='best' type="res_truck_truck" departSpeed='max'/>
    <trip id="res_truck44" depart="792.00" from="E21" to="E3" departLane='best' type="res_truck_truck" departSpeed='max'/>
    <trip id="res_truck45" depart="810.00" from="E21" to="E13" departLane='best' type="res_truck_truck" departSpeed='max'/>
    <trip id="res_truck46" depart="828.00" from="E21" to="E25" departLane='best' type="res_truck_truck" departSpeed='max'/>
    <trip id="res_truck47" depart="846.00" from="E21" to="E25" departLane='best' type="res_truck_truck" departSpeed='max'/>
    <trip id="res_truck48" depart="864.00" from="E21" to="E17" departLane='best' type="res_truck_truck" departSpeed='max'/>
    <trip id="res_truck49" depart="882.00" from="E21" to="E1" departLane='best' type="res_truck_truck" departSpeed='max'/>
    <trip id="res_truck50" depart="900.00" from="E21" to="E22" departLane='best' type="res_truck_truck" departSpeed='max'/>
    <trip id="res_truck51" depart="918.00" from="E21" to="E4" departLane='best' type="res_truck_truck" departSpeed='max'/>
    <trip id="res_truck52" depart="936.00" from="E21" to="E10" departLane='best' type="res_truck_truck" departSpeed='max'/>
    <trip id="res_truck53" depart="954.00" from="E21" to="E25" departLane='best' type="res_truck_truck" departSpeed='max'/>
    <trip id="res_truck54" depart="972.00" from="E21" to="E6" departLane='best' type="res_truck_truck" departSpeed='max'/>
    <trip id="res_truck55" depart="990.00" from="E21" to="E14" departLane='best' type="res_truck_truck" departSpeed='max'/>
    <trip id="res_truck56" depart="1008.00" from="E21" to="E32" departLane='best' type="res_truck_truck" departSpeed='max'/>
    <trip id="res_truck57" depart="1026.00" from="E21" to="E17" departLane='best' type="res_truck_truck" departSpeed='max'/>
    <trip id="res_truck58" depart="1044.00" from="E21" to="E3" departLane='best' type="res_truck_truck" departSpeed='max'/>
    <trip id="res_truck59" depart="1062.00" from="E21" to="E25" departLane='best' type="res_truck_truck" departSpeed='max'/>
    <trip id="res_truck60" depart="1080.00" from="E21" to="E14" departLane='best' type="res_truck_truck" departSpeed='max'/>
    <trip id="res_truck61" depart="1098.00" from="E21" to="E28" departLane='best' type="res_truck_truck" departSpeed='max'/>
    <trip id="res_truck62" depart="1116.00" from="E21" to="E14" departLane='best' type="res_truck_truck" departSpeed='max'/>
    <trip id="res_truck63" depart="1134.00" from="E21" to="E3" departLane='best' type="res_truck_truck" departSpeed='max'/>
    <trip id="res_truck64" depart="1152.00" from="E21" to="E1" departLane='best' type="res_truck_truck" departSpeed='max'/>
    <trip id="res_truck65" depart="1170.00" from="E21" to="E30" departLane='best' type="res_truck_truck" departSpeed='max'/>
    <trip id="res_truck66" depart="1188.00" from="E21" to="E10" departLane='best' type="res_truck_truck" departSpeed='max'/>
    <trip id="res_truck67" depart="1206.00" from="E21" to="E28" departLane='best' type="res_truck_truck" departSpeed='max'/>
    <trip id="res_truck68" depart="1224.00" from="E21" to="E4" departLane='best' type="res_truck_truck" departSpeed='max'/>
    <trip id="res_truck69" depart="1242.00" from="E21" to="E13" departLane='best' type="res_truck_truck" departSpeed='max'/>
    <trip id="res_truck70" depart="1260.00" from="E21" to="E22" departLane='best' type="res_truck_truck" departSpeed='max'/>
    <trip id="res_truck71" depart="1278.00" from="E21" to="E30" departLane='best' type="res_truck_truck" departSpeed='max'/>
    <trip id="res_truck72" depart="1296.00" from="E21" to="E1" departLane='best' type="res_truck_truck" departSpeed='max'/>
    <trip id="res_truck73" depart="1314.00" from="E21" to="E17" departLane='best' type="res_truck_truck" departSpeed='max'/>
    <trip id="res_truck74" depart="1332.00" from="E21" to="E14" departLane='best' type="res_truck_truck" departSpeed='max'/>
    <trip id="res_truck75" depart="1350.00" from="E21" to="E15" departLane='best' type="res_truck_truck" departSpeed='max'/>
    <trip id="res_truck76" depart="1368.00" from="E21" to="E6" departLane='best' type="res_truck_truck" departSpeed='max'/>
    <trip id="res_truck77" depart="1386.00" from="E21" to="E1" departLane='best' type="res_truck_truck" departSpeed='max'/>
    <trip id="res_truck78" depart="1404.00" from="E21" to="E13" departLane='best' type="res_truck_truck" departSpeed='max'/>
    <trip id="res_truck79" depart="1422.00" from="E21" to="E14" departLane='best' type="res_truck_truck" departSpeed='max'/>
    <trip id="res_truck80" depart="1440.00" from="E21" to="E1" departLane='best' type="res_truck_truck" departSpeed='max'/>
    <trip id="res_truck81" depart="1458.00" from="E21" to="E8" departLane='best' type="res_truck_truck" departSpeed='max'/>
    <trip id="res_truck82" depart="1476.00" from="E21" to="E4" departLane='best' type="res_truck_truck" departSpeed='max'/>
    <trip id="res_truck83" depart="1494.00" from="E21" to="E8" departLane='best' type="res_truck_truck" departSpeed='max'/>
    <trip id="res_truck84" depart="1512.00" from="E21" to="E32" departLane='best' type="res_truck_truck" departSpeed='max'/>
    <trip id="res_truck85" depart="1530.00" from="E21" to="E15" departLane='best' type="res_truck_truck" departSpeed='max'/>
    <trip id="res_truck86" depart="1548.00" from="E21" to="E28" departLane='best' type="res_truck_truck" departSpeed='max'/>
    <trip id="res_truck87" depart="1566.00" from="E21" to="E32" departLane='best' type="res_truck_truck" departSpeed='max'/>
    <trip id="res_truck88" depart="1584.00" from="E21" to="E28" departLane='best' type="res_truck_truck" departSpeed='max'/>
    <trip id="res_truck89" depart="1602.00" from="E21" to="E6" departLane='best' type="res_truck_truck" departSpeed='max'/>
    <trip id="res_truck90" depart="1620.00" from="E21" to="E8" departLane='best' type="res_truck_truck" departSpeed='max'/>
    <trip id="res_truck91" depart="1638.00" from="E21" to="E13" departLane='best' type="res_truck_truck" departSpeed='max'/>
    <trip id="res_truck92" depart="1656.00" from="E21" to="E30" departLane='best' type="res_truck_truck" departSpeed='max'/>
    <trip id="res_truck93" depart="1674.00" from="E21" to="E10" departLane='best' type="res_truck_truck" departSpeed='max'/>
    <trip id="res_truck94" depart="1692.00" from="E21" to="E14" departLane='best' type="res_truck_truck" departSpeed='max'/>
    <trip id="res_truck95" depart="1710.00" from="E21" to="E3" departLane='best' type="res_truck_truck" departSpeed='max'/>
    <trip id="res_truck96" depart="1728.00" from="E21" to="E28" departLane='best' type="res_truck_truck" departSpeed='max'/>
    <trip id="res_truck97" depart="1746.00" from="E21" to="E32" departLane='best' type="res_truck_truck" departSpeed='max'/>
    <trip id="res_truck98" depart="1764.00" from="E21" to="E15" departLane='best' type="res_truck_truck" departSpeed='max'/>
    <trip id="res_truck99" depart="1782.00" from="E21" to="E4" departLane='best' type="res_truck_truck" departSpeed='max'/>
    <trip id="res_truck100" depart="1800.00" from="E21" to="E22" departLane='best' type="res_truck_truck" departSpeed='max'/>
    <trip id="res_truck101" depart="1818.00" from="E21" to="E8" departLane='best' type="res_truck_truck" departSpeed='max'/>
    <trip id="res_truck102" depart="1836.00" from="E21" to="E14" departLane='best' type="res_truck_truck" departSpeed='max'/>
    <trip id="res_truck103" depart="1854.00" from="E21" to="E6" departLane='best' type="res_truck_truck" departSpeed='max'/>
    <trip id="res_truck104" depart="1872.00" from="E21" to="E13" departLane='best' type="res_truck_truck" departSpeed='max'/>
    <trip id="res_truck105" depart="1890.00" from="E21" to="E32" departLane='best' type="res_truck_truck" departSpeed='max'/>
    <trip id="res_truck106" depart="1908.00" from="E21" to="E8" departLane='best' type="res_truck_truck" departSpeed='max'/>
    <trip id="res_truck107" depart="1926.00" from="E21" to="E15" departLane='best' type="res_truck_truck" departSpeed='max'/>
    <trip id="res_truck108" depart="1944.00" from="E21" to="E10" departLane='best' type="res_truck_truck" departSpeed='max'/>
    <trip id="res_truck109" depart="1962.00" from="E21" to="E28" departLane='best' type="res_truck_truck" departSpeed='max'/>
    <trip id="res_truck110" depart="1980.00" from="E21" to="E3" departLane='best' type="res_truck_truck" departSpeed='max'/>
    <trip id="res_truck111" depart="1998.00" from="E21" to="E14" departLane='best' type="res_truck_truck" departSpeed='max'/>
    <trip id="res_truck112" depart="2016.00" from="E21" to="E15" departLane='best' type="res_truck_truck" departSpeed='max'/>
    <trip id="res_truck113" depart="2034.00" from="E21" to="E1" departLane='best' type="res_truck_truck" departSpeed='max'/>
    <trip id="res_truck114" depart="2052.00" from="E21" to="E15" departLane='best' type="res_truck_truck" departSpeed='max'/>
    <trip id="res_truck115" depart="2070.00" from="E21" to="E4" departLane='best' type="res_truck_truck" departSpeed='max'/>
    <trip id="res_truck116" depart="2088.00" from="E21" to="E15" departLane='best' type="res_truck_truck" departSpeed='max'/>
    <trip id="res_truck117" depart="2106.00" from="E21" to="E28" departLane='best' type="res_truck_truck" departSpeed='max'/>
    <trip id="res_truck118" depart="2124.00" from="E21" to="E6" departLane='best' type="res_truck_truck" departSpeed='max'/>
    <trip id="res_truck119" depart="2142.00" from="E21" to="E25" departLane='best' type="res_truck_truck" departSpeed='max'/>
    <trip id="res_truck120" depart="2160.00" from="E21" to="E28" departLane='best' type="res_truck_truck" departSpeed='max'/>
    <trip id="res_truck121" depart="2178.00" from="E21" to="E10" departLane='best' type="res_truck_truck" departSpeed='max'/>
    <trip id="res_truck122" depart="2196.00" from="E21" to="E6" departLane='best' type="res_truck_truck" departSpeed='max'/>
    <trip id="res_truck123" depart="2214.00" from="E21" to="E6" departLane='best' type="res_truck_truck" departSpeed='max'/>
    <trip id="res_truck124" depart="2232.00" from="E21" to="E14" departLane='best' type="res_truck_truck" departSpeed='max'/>
    <trip id="res_truck125" depart="2250.00" from="E21" to="E10" departLane='best' type="res_truck_truck" departSpeed='max'/>
    <trip id="res_truck126" depart="2268.00" from="E21" to="E6" departLane='best' type="res_truck_truck" departSpeed='max'/>
    <trip id="res_truck127" depart="2286.00" from="E21" to="E3" departLane='best' type="res_truck_truck" departSpeed='max'/>
    <trip id="res_truck128" depart="2304.00" from="E21" to="E8" departLane='best' type="res_truck_truck" departSpeed='max'/>
    <trip id="res_truck129" depart="2322.00" from="E21" to="E6" departLane='best' type="res_truck_truck" departSpeed='max'/>
    <trip id="res_truck130" depart="2340.00" from="E21" to="E32" departLane='best' type="res_truck_truck" departSpeed='max'/>
    <trip id="res_truck131" depart="2358.00" from="E21" to="E6" departLane='best' type="res_truck_truck" departSpeed='max'/>
    <trip id="res_truck132" depart="2376.00" from="E21" to="E15" departLane='best' type="res_truck_truck" departSpeed='max'/>
    <trip id="res_truck133" depart="2394.00" from="E21" to="E10" departLane='best' type="res_truck_truck" departSpeed='max'/>
    <trip id="res_truck134" depart="2412.00" from="E21" to="E6" departLane='best' type="res_truck_truck" departSpeed='max'/>
    <trip id="res_truck135" depart="2430.00" from="E21" to="E17" departLane='best' type="res_truck_truck" departSpeed='max'/>
    <trip id="res_truck136" depart="2448.00" from="E21" to="E14" departLane='best' type="res_truck_truck" departSpeed='max'/>
    <trip id="res_truck137" depart="2466.00" from="E21" to="E13" departLane='best' type="res_truck_truck" departSpeed='max'/>
    <trip id="res_truck138" depart="2484.00" from="E21" to="E6" departLane='best' type="res_truck_truck" departSpeed='max'/>
    <trip id="res_truck139" depart="2502.00" from="E21" to="E15" departLane='best' type="res_truck_truck" departSpeed='max'/>
    <trip id="res_truck140" depart="2520.00" from="E21" to="E25" departLane='best' type="res_truck_truck" departSpeed='max'/>
    <trip id="res_truck141" depart="2538.00" from="E21" to="E10" departLane='best' type="res_truck_truck" departSpeed='max'/>
    <trip id="res_truck142" depart="2556.00" from="E21" to="E13" departLane='best' type="res_truck_truck" departSpeed='max'/>
    <trip id="res_truck143" depart="2574.00" from="E21" to="E15" departLane='best' type="res_truck_truck" departSpeed='max'/>
    <trip id="res_truck144" depart="2592.00" from="E21" to="E17" departLane='best' type="res_truck_truck" departSpeed='max'/>
    <trip id="res_truck145" depart="2610.00" from="E21" to="E25" departLane='best' type="res_truck_truck" departSpeed='max'/>
    <trip id="res_truck146" depart="2628.00" from="E21" to="E28" departLane='best' type="res_truck_truck" departSpeed='max'/>
    <trip id="res_truck147" depart="2646.00" from="E21" to="E32" departLane='best' type="res_truck_truck" departSpeed='max'/>
    <trip id="res_truck148" depart="2664.00" from="E21" to="E32" departLane='best' type="res_truck_truck" departSpeed='max'/>
    <trip id="res_truck149" depart="2682.00" from="E21" to="E30" departLane='best' type="res_truck_truck" departSpeed='max'/>
    <trip id="res_truck150" depart="2700.00" from="E21" to="E1" departLane='best' type="res_truck_truck" departSpeed='max'/>
    <trip id="res_truck151" depart="2718.00" from="E21" to="E17" departLane='best' type="res_truck_truck" departSpeed='max'/>
    <trip id="res_truck152" depart="2736.00" from="E21" to="E17" departLane='best' type="res_truck_truck" departSpeed='max'/>
    <trip id="res_truck153" depart="2754.00" from="E21" to="E15" departLane='best' type="res_truck_truck" departSpeed='max'/>
    <trip id="res_truck154" depart="2772.00" from="E21" to="E30" departLane='best' type="res_truck_truck" departSpeed='max'/>
    <trip id="res_truck155" depart="2790.00" from="E21" to="E3" departLane='best' type="res_truck_truck" departSpeed='max'/>
    <trip id="res_truck156" depart="2808.00" from="E21" to="E25" departLane='best' type="res_truck_truck" departSpeed='max'/>
    <trip id="res_truck157" depart="2826.00" from="E21" to="E15" departLane='best' type="res_truck_truck" departSpeed='max'/>
    <trip id="res_truck158" depart="2844.00" from="E21" to="E28" departLane='best' type="res_truck_truck" departSpeed='max'/>
    <trip id="res_truck159" depart="2862.00" from="E21" to="E22" departLane='best' type="res_truck_truck" departSpeed='max'/>
    <trip id="res_truck160" depart="2880.00" from="E21" to="E14" departLane='best' type="res_truck_truck" departSpeed='max'/>
    <trip id="res_truck161" depart="2898.00" from="E21" to="E13" departLane='best' type="res_truck_truck" departSpeed='max'/>
    <trip id="res_truck162" depart="2916.00" from="E21" to="E25" departLane='best' type="res_truck_truck" departSpeed='max'/>
    <trip id="res_truck163" depart="2934.00" from="E21" to="E17" departLane='best' type="res_truck_truck" departSpeed='max'/>
    <trip id="res_truck164" depart="2952.00" from="E21" to="E4" departLane='best' type="res_truck_truck" departSpeed='max'/>
    <trip id="res_truck165" depart="2970.00" from="E21" to="E14" departLane='best' type="res_truck_truck" departSpeed='max'/>
    <trip id="res_truck166" depart="2988.00" from="E21" to="E22" departLane='best' type="res_truck_truck" departSpeed='max'/>
    <trip id="res_truck167" depart="3006.00" from="E21" to="E1" departLane='best' type="res_truck_truck" departSpeed='max'/>
    <trip id="res_truck168" depart="3024.00" from="E21" to="E3" departLane='best' type="res_truck_truck" departSpeed='max'/>
    <trip id="res_truck169" depart="3042.00" from="E21" to="E30" departLane='best' type="res_truck_truck" departSpeed='max'/>
    <trip id="res_truck170" depart="3060.00" from="E21" to="E14" departLane='best' type="res_truck_truck" departSpeed='max'/>
    <trip id="res_truck171" depart="3078.00" from="E21" to="E4" departLane='best' type="res_truck_truck" departSpeed='max'/>
    <trip id="res_truck172" depart="3096.00" from="E21" to="E8" departLane='best' type="res_truck_truck" departSpeed='max'/>
    <trip id="res_truck173" depart="3114.00" from="E21" to="E1" departLane='best' type="res_truck_truck" departSpeed='max'/>
    <trip id="res_truck174" depart="3132.00" from="E21" to="E8" departLane='best' type="res_truck_truck" departSpeed='max'/>
    <trip id="res_truck175" depart="3150.00" from="E21" to="E8" departLane='best' type="res_truck_truck" departSpeed='max'/>
    <trip id="res_truck176" depart="3168.00" from="E21" to="E3" departLane='best' type="res_truck_truck" departSpeed='max'/>
    <trip id="res_truck177" depart="3186.00" from="E21" to="E25" departLane='best' type="res_truck_truck" departSpeed='max'/>
    <trip id="res_truck178" depart="3204.00" from="E21" to="E25" departLane='best' type="res_truck_truck" departSpeed='max'/>
    <trip id="res_truck179" depart="3222.00" from="E21" to="E32" departLane='best' type="res_truck_truck" departSpeed='max'/>
    <trip id="res_truck180" depart="3240.00" from="E21" to="E15" departLane='best' type="res_truck_truck" departSpeed='max'/>
    <trip id="res_truck181" depart="3258.00" from="E21" to="E3" departLane='best' type="res_truck_truck" departSpeed='max'/>
    <trip id="res_truck182" depart="3276.00" from="E21" to="E25" departLane='best' type="res_truck_truck" departSpeed='max'/>
    <trip id="res_truck183" depart="3294.00" from="E21" to="E15" departLane='best' type="res_truck_truck" departSpeed='max'/>
    <trip id="res_truck184" depart="3312.00" from="E21" to="E15" departLane='best' type="res_truck_truck" departSpeed='max'/>
    <trip id="res_truck185" depart="3330.00" from="E21" to="E17" departLane='best' type="res_truck_truck" departSpeed='max'/>
    <trip id="res_truck186" depart="3348.00" from="E21" to="E10" departLane='best' type="res_truck_truck" departSpeed='max'/>
    <trip id="res_truck187" depart="3366.00" from="E21" to="E30" departLane='best' type="res_truck_truck" departSpeed='max'/>
    <trip id="res_truck188" depart="3384.00" from="E21" to="E1" departLane='best' type="res_truck_truck" departSpeed='max'/>
    <trip id="res_truck189" depart="3402.00" from="E21" to="E25" departLane='best' type="res_truck_truck" departSpeed='max'/>
    <trip id="res_truck190" depart="3420.00" from="E21" to="E14" departLane='best' type="res_truck_truck" departSpeed='max'/>
    <trip id="res_truck191" depart="3438.00" from="E21" to="E30" departLane='best' type="res_truck_truck" departSpeed='max'/>
    <trip id="res_truck192" depart="3456.00" from="E21" to="E4" departLane='best' type="res_truck_truck" departSpeed='max'/>
    <trip id="res_truck193" depart="3474.00" from="E21" to="E4" departLane='best' type="res_truck_truck" departSpeed='max'/>
    <trip id="res_truck194" depart="3492.00" from="E21" to="E8" departLane='best' type="res_truck_truck" departSpeed='max'/>
    <trip id="res_truck195" depart="3510.00" from="E21" to="E32" departLane='best' type="res_truck_truck" departSpeed='max'/>
    <trip id="res_truck196" depart="3528.00" from="E21" to="E3" departLane='best' type="res_truck_truck" departSpeed='max'/>
    <trip id="res_truck197" depart="3546.00" from="E21" to="E14" departLane='best' type="res_truck_truck" departSpeed='max'/>
    <trip id="res_truck198" depart="3564.00" from="E21" to="E30" departLane='best' type="res_truck_truck" departSpeed='max'/>
    <trip id="res_truck199" depart="3582.00" from="E21" to="E13" departLane='best' type="res_truck_truck" departSpeed='max'/>
</routes>
