<?xml version="1.0" encoding="UTF-8"?>

<!-- generated on 2025-07-19 18:44:47 by Eclipse SUMO netedit Version 1.22.0
-->

<additional xmlns:xsi="http://www.w3.org/2001/XMLSchema-instance" xsi:noNamespaceSchemaLocation="http://sumo.dlr.de/xsd/additional_file.xsd">
    <!-- Detectors -->
    <laneAreaDetector id="e2_0" lane="E3_1" pos="41.00" length="60.00" period="300.00" file="e2_0.xml" friendlyPos="1"/>
    <laneAreaDetector id="e2_1" lane="E3_2" pos="41.00" length="60.00" period="300.00" file="e2_1.xml" friendlyPos="1"/>
    <laneAreaDetector id="e2_10" lane="E7_2" pos="64.00" length="60.00" period="300.00" file="e2_10.xml" friendlyPos="1"/>
    <laneAreaDetector id="e2_11" lane="E7_1" pos="64.00" length="60.00" period="300.00" file="e2_11.xml" friendlyPos="1"/>
    <laneAreaDetector id="e2_14" lane="E5_2" pos="65.00" length="60.00" period="300.00" file="e2_14.xml" friendlyPos="1"/>
    <laneAreaDetector id="e2_15" lane="E5_1" pos="65.00" length="60.00" period="300.00" file="e2_15.xml" friendlyPos="1"/>
    <laneAreaDetector id="e2_4" lane="E0_1" pos="54.00" length="60.00" period="300.00" file="e2_4.xml" friendlyPos="1"/>
    <laneAreaDetector id="e2_5" lane="E0_2" pos="54.00" length="60.00" period="300.00" file="e2_5.xml" friendlyPos="1"/>
</additional>
