<?xml version="1.0" encoding="UTF-8"?>

<!-- generated on 2025-07-24 12:08:48.949320 by randomTrips.py v1_23_1+0000-676720d13f6
<configuration>
    <net-file value="osm.net.xml.gz"/>
    <weights-prefix value="random_edge_priority"/>
    <output-trip-file value="osm.res_motorcycle.trips.xml"/>
    <prefix value="res_motorcycle"/>
    <trip-attributes value="departLane='best'"/>
    <fringe-start-attributes value="departSpeed='max'"/>
    <vehicle-class value="motorcycle"/>
    <edge-permission value="motorcycle"/>
    <remove-loops value="True"/>
    <validate value="True"/>
    <insertion-rate value="6000.0"/>
</configuration>
-->

<routes xmlns:xsi="http://www.w3.org/2001/XMLSchema-instance" xsi:noNamespaceSchemaLocation="http://sumo.dlr.de/xsd/routes_file.xsd">
    <vType id="res_motorcycle_motorcycle" vClass="motorcycle"/>
    <trip id="res_motorcycle0" depart="0.00" from="E21" to="E14" departLane='best' type="res_motorcycle_motorcycle" departSpeed='max'/>
    <trip id="res_motorcycle1" depart="0.60" from="E21" to="E30" departLane='best' type="res_motorcycle_motorcycle" departSpeed='max'/>
    <trip id="res_motorcycle2" depart="1.20" from="E21" to="E1" departLane='best' type="res_motorcycle_motorcycle" departSpeed='max'/>
    <trip id="res_motorcycle3" depart="1.80" from="E21" to="E25" departLane='best' type="res_motorcycle_motorcycle" departSpeed='max'/>
    <trip id="res_motorcycle4" depart="2.40" from="E21" to="E13" departLane='best' type="res_motorcycle_motorcycle" departSpeed='max'/>
    <trip id="res_motorcycle5" depart="3.00" from="E21" to="E25" departLane='best' type="res_motorcycle_motorcycle" departSpeed='max'/>
    <trip id="res_motorcycle6" depart="3.60" from="E21" to="E28" departLane='best' type="res_motorcycle_motorcycle" departSpeed='max'/>
    <trip id="res_motorcycle7" depart="4.20" from="E21" to="E30" departLane='best' type="res_motorcycle_motorcycle" departSpeed='max'/>
    <trip id="res_motorcycle8" depart="4.80" from="E21" to="E13" departLane='best' type="res_motorcycle_motorcycle" departSpeed='max'/>
    <trip id="res_motorcycle9" depart="5.40" from="E21" to="E17" departLane='best' type="res_motorcycle_motorcycle" departSpeed='max'/>
    <trip id="res_motorcycle10" depart="6.00" from="E21" to="E1" departLane='best' type="res_motorcycle_motorcycle" departSpeed='max'/>
    <trip id="res_motorcycle11" depart="6.60" from="E21" to="E3" departLane='best' type="res_motorcycle_motorcycle" departSpeed='max'/>
    <trip id="res_motorcycle12" depart="7.20" from="E21" to="E32" departLane='best' type="res_motorcycle_motorcycle" departSpeed='max'/>
    <trip id="res_motorcycle13" depart="7.80" from="E21" to="E8" departLane='best' type="res_motorcycle_motorcycle" departSpeed='max'/>
    <trip id="res_motorcycle14" depart="8.40" from="E21" to="E28" departLane='best' type="res_motorcycle_motorcycle" departSpeed='max'/>
    <trip id="res_motorcycle15" depart="9.00" from="E21" to="E3" departLane='best' type="res_motorcycle_motorcycle" departSpeed='max'/>
    <trip id="res_motorcycle16" depart="9.60" from="E21" to="E28" departLane='best' type="res_motorcycle_motorcycle" departSpeed='max'/>
    <trip id="res_motorcycle17" depart="10.20" from="E21" to="E15" departLane='best' type="res_motorcycle_motorcycle" departSpeed='max'/>
    <trip id="res_motorcycle18" depart="10.80" from="E21" to="E14" departLane='best' type="res_motorcycle_motorcycle" departSpeed='max'/>
    <trip id="res_motorcycle19" depart="11.40" from="E21" to="E15" departLane='best' type="res_motorcycle_motorcycle" departSpeed='max'/>
    <trip id="res_motorcycle20" depart="12.00" from="E21" to="E14" departLane='best' type="res_motorcycle_motorcycle" departSpeed='max'/>
    <trip id="res_motorcycle21" depart="12.60" from="E21" to="E3" departLane='best' type="res_motorcycle_motorcycle" departSpeed='max'/>
    <trip id="res_motorcycle22" depart="13.20" from="E21" to="E32" departLane='best' type="res_motorcycle_motorcycle" departSpeed='max'/>
    <trip id="res_motorcycle23" depart="13.80" from="E21" to="E3" departLane='best' type="res_motorcycle_motorcycle" departSpeed='max'/>
    <trip id="res_motorcycle24" depart="14.40" from="E21" to="E30" departLane='best' type="res_motorcycle_motorcycle" departSpeed='max'/>
    <trip id="res_motorcycle25" depart="15.00" from="E21" to="E4" departLane='best' type="res_motorcycle_motorcycle" departSpeed='max'/>
    <trip id="res_motorcycle26" depart="15.60" from="E21" to="E15" departLane='best' type="res_motorcycle_motorcycle" departSpeed='max'/>
    <trip id="res_motorcycle27" depart="16.20" from="E21" to="E17" departLane='best' type="res_motorcycle_motorcycle" departSpeed='max'/>
    <trip id="res_motorcycle28" depart="16.80" from="E21" to="E22" departLane='best' type="res_motorcycle_motorcycle" departSpeed='max'/>
    <trip id="res_motorcycle29" depart="17.40" from="E21" to="E14" departLane='best' type="res_motorcycle_motorcycle" departSpeed='max'/>
    <trip id="res_motorcycle30" depart="18.00" from="E21" to="E15" departLane='best' type="res_motorcycle_motorcycle" departSpeed='max'/>
    <trip id="res_motorcycle31" depart="18.60" from="E21" to="E6" departLane='best' type="res_motorcycle_motorcycle" departSpeed='max'/>
    <trip id="res_motorcycle32" depart="19.20" from="E21" to="E14" departLane='best' type="res_motorcycle_motorcycle" departSpeed='max'/>
    <trip id="res_motorcycle33" depart="19.80" from="E21" to="E25" departLane='best' type="res_motorcycle_motorcycle" departSpeed='max'/>
    <trip id="res_motorcycle34" depart="20.40" from="E21" to="E3" departLane='best' type="res_motorcycle_motorcycle" departSpeed='max'/>
    <trip id="res_motorcycle35" depart="21.00" from="E21" to="E25" departLane='best' type="res_motorcycle_motorcycle" departSpeed='max'/>
    <trip id="res_motorcycle36" depart="21.60" from="E21" to="E6" departLane='best' type="res_motorcycle_motorcycle" departSpeed='max'/>
    <trip id="res_motorcycle37" depart="22.20" from="E21" to="E32" departLane='best' type="res_motorcycle_motorcycle" departSpeed='max'/>
    <trip id="res_motorcycle38" depart="22.80" from="E21" to="E25" departLane='best' type="res_motorcycle_motorcycle" departSpeed='max'/>
    <trip id="res_motorcycle39" depart="23.40" from="E21" to="E3" departLane='best' type="res_motorcycle_motorcycle" departSpeed='max'/>
    <trip id="res_motorcycle40" depart="24.00" from="E21" to="E8" departLane='best' type="res_motorcycle_motorcycle" departSpeed='max'/>
    <trip id="res_motorcycle41" depart="24.60" from="E21" to="E15" departLane='best' type="res_motorcycle_motorcycle" departSpeed='max'/>
    <trip id="res_motorcycle42" depart="25.20" from="E21" to="E13" departLane='best' type="res_motorcycle_motorcycle" departSpeed='max'/>
    <trip id="res_motorcycle43" depart="25.80" from="E21" to="E6" departLane='best' type="res_motorcycle_motorcycle" departSpeed='max'/>
    <trip id="res_motorcycle44" depart="26.40" from="E21" to="E3" departLane='best' type="res_motorcycle_motorcycle" departSpeed='max'/>
    <trip id="res_motorcycle45" depart="27.00" from="E21" to="E13" departLane='best' type="res_motorcycle_motorcycle" departSpeed='max'/>
    <trip id="res_motorcycle46" depart="27.60" from="E21" to="E25" departLane='best' type="res_motorcycle_motorcycle" departSpeed='max'/>
    <trip id="res_motorcycle47" depart="28.20" from="E21" to="E25" departLane='best' type="res_motorcycle_motorcycle" departSpeed='max'/>
    <trip id="res_motorcycle48" depart="28.80" from="E21" to="E17" departLane='best' type="res_motorcycle_motorcycle" departSpeed='max'/>
    <trip id="res_motorcycle49" depart="29.40" from="E21" to="E1" departLane='best' type="res_motorcycle_motorcycle" departSpeed='max'/>
    <trip id="res_motorcycle50" depart="30.00" from="E21" to="E22" departLane='best' type="res_motorcycle_motorcycle" departSpeed='max'/>
    <trip id="res_motorcycle51" depart="30.60" from="E21" to="E4" departLane='best' type="res_motorcycle_motorcycle" departSpeed='max'/>
    <trip id="res_motorcycle52" depart="31.20" from="E21" to="E10" departLane='best' type="res_motorcycle_motorcycle" departSpeed='max'/>
    <trip id="res_motorcycle53" depart="31.80" from="E21" to="E25" departLane='best' type="res_motorcycle_motorcycle" departSpeed='max'/>
    <trip id="res_motorcycle54" depart="32.40" from="E21" to="E6" departLane='best' type="res_motorcycle_motorcycle" departSpeed='max'/>
    <trip id="res_motorcycle55" depart="33.00" from="E21" to="E14" departLane='best' type="res_motorcycle_motorcycle" departSpeed='max'/>
    <trip id="res_motorcycle56" depart="33.60" from="E21" to="E32" departLane='best' type="res_motorcycle_motorcycle" departSpeed='max'/>
    <trip id="res_motorcycle57" depart="34.20" from="E21" to="E17" departLane='best' type="res_motorcycle_motorcycle" departSpeed='max'/>
    <trip id="res_motorcycle58" depart="34.80" from="E21" to="E3" departLane='best' type="res_motorcycle_motorcycle" departSpeed='max'/>
    <trip id="res_motorcycle59" depart="35.40" from="E21" to="E25" departLane='best' type="res_motorcycle_motorcycle" departSpeed='max'/>
    <trip id="res_motorcycle60" depart="36.00" from="E21" to="E14" departLane='best' type="res_motorcycle_motorcycle" departSpeed='max'/>
    <trip id="res_motorcycle61" depart="36.60" from="E21" to="E28" departLane='best' type="res_motorcycle_motorcycle" departSpeed='max'/>
    <trip id="res_motorcycle62" depart="37.20" from="E21" to="E14" departLane='best' type="res_motorcycle_motorcycle" departSpeed='max'/>
    <trip id="res_motorcycle63" depart="37.80" from="E21" to="E3" departLane='best' type="res_motorcycle_motorcycle" departSpeed='max'/>
    <trip id="res_motorcycle64" depart="38.40" from="E21" to="E1" departLane='best' type="res_motorcycle_motorcycle" departSpeed='max'/>
    <trip id="res_motorcycle65" depart="39.00" from="E21" to="E30" departLane='best' type="res_motorcycle_motorcycle" departSpeed='max'/>
    <trip id="res_motorcycle66" depart="39.60" from="E21" to="E10" departLane='best' type="res_motorcycle_motorcycle" departSpeed='max'/>
    <trip id="res_motorcycle67" depart="40.20" from="E21" to="E28" departLane='best' type="res_motorcycle_motorcycle" departSpeed='max'/>
    <trip id="res_motorcycle68" depart="40.80" from="E21" to="E4" departLane='best' type="res_motorcycle_motorcycle" departSpeed='max'/>
    <trip id="res_motorcycle69" depart="41.40" from="E21" to="E13" departLane='best' type="res_motorcycle_motorcycle" departSpeed='max'/>
    <trip id="res_motorcycle70" depart="42.00" from="E21" to="E22" departLane='best' type="res_motorcycle_motorcycle" departSpeed='max'/>
    <trip id="res_motorcycle71" depart="42.60" from="E21" to="E30" departLane='best' type="res_motorcycle_motorcycle" departSpeed='max'/>
    <trip id="res_motorcycle72" depart="43.20" from="E21" to="E1" departLane='best' type="res_motorcycle_motorcycle" departSpeed='max'/>
    <trip id="res_motorcycle73" depart="43.80" from="E21" to="E17" departLane='best' type="res_motorcycle_motorcycle" departSpeed='max'/>
    <trip id="res_motorcycle74" depart="44.40" from="E21" to="E14" departLane='best' type="res_motorcycle_motorcycle" departSpeed='max'/>
    <trip id="res_motorcycle75" depart="45.00" from="E21" to="E15" departLane='best' type="res_motorcycle_motorcycle" departSpeed='max'/>
    <trip id="res_motorcycle76" depart="45.60" from="E21" to="E6" departLane='best' type="res_motorcycle_motorcycle" departSpeed='max'/>
    <trip id="res_motorcycle77" depart="46.20" from="E21" to="E1" departLane='best' type="res_motorcycle_motorcycle" departSpeed='max'/>
    <trip id="res_motorcycle78" depart="46.80" from="E21" to="E13" departLane='best' type="res_motorcycle_motorcycle" departSpeed='max'/>
    <trip id="res_motorcycle79" depart="47.40" from="E21" to="E14" departLane='best' type="res_motorcycle_motorcycle" departSpeed='max'/>
    <trip id="res_motorcycle80" depart="48.00" from="E21" to="E1" departLane='best' type="res_motorcycle_motorcycle" departSpeed='max'/>
    <trip id="res_motorcycle81" depart="48.60" from="E21" to="E8" departLane='best' type="res_motorcycle_motorcycle" departSpeed='max'/>
    <trip id="res_motorcycle82" depart="49.20" from="E21" to="E4" departLane='best' type="res_motorcycle_motorcycle" departSpeed='max'/>
    <trip id="res_motorcycle83" depart="49.80" from="E21" to="E8" departLane='best' type="res_motorcycle_motorcycle" departSpeed='max'/>
    <trip id="res_motorcycle84" depart="50.40" from="E21" to="E32" departLane='best' type="res_motorcycle_motorcycle" departSpeed='max'/>
    <trip id="res_motorcycle85" depart="51.00" from="E21" to="E15" departLane='best' type="res_motorcycle_motorcycle" departSpeed='max'/>
    <trip id="res_motorcycle86" depart="51.60" from="E21" to="E28" departLane='best' type="res_motorcycle_motorcycle" departSpeed='max'/>
    <trip id="res_motorcycle87" depart="52.20" from="E21" to="E32" departLane='best' type="res_motorcycle_motorcycle" departSpeed='max'/>
    <trip id="res_motorcycle88" depart="52.80" from="E21" to="E28" departLane='best' type="res_motorcycle_motorcycle" departSpeed='max'/>
    <trip id="res_motorcycle89" depart="53.40" from="E21" to="E6" departLane='best' type="res_motorcycle_motorcycle" departSpeed='max'/>
    <trip id="res_motorcycle90" depart="54.00" from="E21" to="E8" departLane='best' type="res_motorcycle_motorcycle" departSpeed='max'/>
    <trip id="res_motorcycle91" depart="54.60" from="E21" to="E13" departLane='best' type="res_motorcycle_motorcycle" departSpeed='max'/>
    <trip id="res_motorcycle92" depart="55.20" from="E21" to="E30" departLane='best' type="res_motorcycle_motorcycle" departSpeed='max'/>
    <trip id="res_motorcycle93" depart="55.80" from="E21" to="E10" departLane='best' type="res_motorcycle_motorcycle" departSpeed='max'/>
    <trip id="res_motorcycle94" depart="56.40" from="E21" to="E14" departLane='best' type="res_motorcycle_motorcycle" departSpeed='max'/>
    <trip id="res_motorcycle95" depart="57.00" from="E21" to="E3" departLane='best' type="res_motorcycle_motorcycle" departSpeed='max'/>
    <trip id="res_motorcycle96" depart="57.60" from="E21" to="E28" departLane='best' type="res_motorcycle_motorcycle" departSpeed='max'/>
    <trip id="res_motorcycle97" depart="58.20" from="E21" to="E32" departLane='best' type="res_motorcycle_motorcycle" departSpeed='max'/>
    <trip id="res_motorcycle98" depart="58.80" from="E21" to="E15" departLane='best' type="res_motorcycle_motorcycle" departSpeed='max'/>
    <trip id="res_motorcycle99" depart="59.40" from="E21" to="E4" departLane='best' type="res_motorcycle_motorcycle" departSpeed='max'/>
    <trip id="res_motorcycle100" depart="60.00" from="E21" to="E22" departLane='best' type="res_motorcycle_motorcycle" departSpeed='max'/>
    <trip id="res_motorcycle101" depart="60.60" from="E21" to="E8" departLane='best' type="res_motorcycle_motorcycle" departSpeed='max'/>
    <trip id="res_motorcycle102" depart="61.20" from="E21" to="E14" departLane='best' type="res_motorcycle_motorcycle" departSpeed='max'/>
    <trip id="res_motorcycle103" depart="61.80" from="E21" to="E6" departLane='best' type="res_motorcycle_motorcycle" departSpeed='max'/>
    <trip id="res_motorcycle104" depart="62.40" from="E21" to="E13" departLane='best' type="res_motorcycle_motorcycle" departSpeed='max'/>
    <trip id="res_motorcycle105" depart="63.00" from="E21" to="E32" departLane='best' type="res_motorcycle_motorcycle" departSpeed='max'/>
    <trip id="res_motorcycle106" depart="63.60" from="E21" to="E8" departLane='best' type="res_motorcycle_motorcycle" departSpeed='max'/>
    <trip id="res_motorcycle107" depart="64.20" from="E21" to="E15" departLane='best' type="res_motorcycle_motorcycle" departSpeed='max'/>
    <trip id="res_motorcycle108" depart="64.80" from="E21" to="E10" departLane='best' type="res_motorcycle_motorcycle" departSpeed='max'/>
    <trip id="res_motorcycle109" depart="65.40" from="E21" to="E28" departLane='best' type="res_motorcycle_motorcycle" departSpeed='max'/>
    <trip id="res_motorcycle110" depart="66.00" from="E21" to="E3" departLane='best' type="res_motorcycle_motorcycle" departSpeed='max'/>
    <trip id="res_motorcycle111" depart="66.60" from="E21" to="E14" departLane='best' type="res_motorcycle_motorcycle" departSpeed='max'/>
    <trip id="res_motorcycle112" depart="67.20" from="E21" to="E15" departLane='best' type="res_motorcycle_motorcycle" departSpeed='max'/>
    <trip id="res_motorcycle113" depart="67.80" from="E21" to="E1" departLane='best' type="res_motorcycle_motorcycle" departSpeed='max'/>
    <trip id="res_motorcycle114" depart="68.40" from="E21" to="E15" departLane='best' type="res_motorcycle_motorcycle" departSpeed='max'/>
    <trip id="res_motorcycle115" depart="69.00" from="E21" to="E4" departLane='best' type="res_motorcycle_motorcycle" departSpeed='max'/>
    <trip id="res_motorcycle116" depart="69.60" from="E21" to="E15" departLane='best' type="res_motorcycle_motorcycle" departSpeed='max'/>
    <trip id="res_motorcycle117" depart="70.20" from="E21" to="E28" departLane='best' type="res_motorcycle_motorcycle" departSpeed='max'/>
    <trip id="res_motorcycle118" depart="70.80" from="E21" to="E6" departLane='best' type="res_motorcycle_motorcycle" departSpeed='max'/>
    <trip id="res_motorcycle119" depart="71.40" from="E21" to="E25" departLane='best' type="res_motorcycle_motorcycle" departSpeed='max'/>
    <trip id="res_motorcycle120" depart="72.00" from="E21" to="E28" departLane='best' type="res_motorcycle_motorcycle" departSpeed='max'/>
    <trip id="res_motorcycle121" depart="72.60" from="E21" to="E10" departLane='best' type="res_motorcycle_motorcycle" departSpeed='max'/>
    <trip id="res_motorcycle122" depart="73.20" from="E21" to="E6" departLane='best' type="res_motorcycle_motorcycle" departSpeed='max'/>
    <trip id="res_motorcycle123" depart="73.80" from="E21" to="E6" departLane='best' type="res_motorcycle_motorcycle" departSpeed='max'/>
    <trip id="res_motorcycle124" depart="74.40" from="E21" to="E14" departLane='best' type="res_motorcycle_motorcycle" departSpeed='max'/>
    <trip id="res_motorcycle125" depart="75.00" from="E21" to="E10" departLane='best' type="res_motorcycle_motorcycle" departSpeed='max'/>
    <trip id="res_motorcycle126" depart="75.60" from="E21" to="E6" departLane='best' type="res_motorcycle_motorcycle" departSpeed='max'/>
    <trip id="res_motorcycle127" depart="76.20" from="E21" to="E3" departLane='best' type="res_motorcycle_motorcycle" departSpeed='max'/>
    <trip id="res_motorcycle128" depart="76.80" from="E21" to="E8" departLane='best' type="res_motorcycle_motorcycle" departSpeed='max'/>
    <trip id="res_motorcycle129" depart="77.40" from="E21" to="E6" departLane='best' type="res_motorcycle_motorcycle" departSpeed='max'/>
    <trip id="res_motorcycle130" depart="78.00" from="E21" to="E32" departLane='best' type="res_motorcycle_motorcycle" departSpeed='max'/>
    <trip id="res_motorcycle131" depart="78.60" from="E21" to="E6" departLane='best' type="res_motorcycle_motorcycle" departSpeed='max'/>
    <trip id="res_motorcycle132" depart="79.20" from="E21" to="E15" departLane='best' type="res_motorcycle_motorcycle" departSpeed='max'/>
    <trip id="res_motorcycle133" depart="79.80" from="E21" to="E10" departLane='best' type="res_motorcycle_motorcycle" departSpeed='max'/>
    <trip id="res_motorcycle134" depart="80.40" from="E21" to="E6" departLane='best' type="res_motorcycle_motorcycle" departSpeed='max'/>
    <trip id="res_motorcycle135" depart="81.00" from="E21" to="E17" departLane='best' type="res_motorcycle_motorcycle" departSpeed='max'/>
    <trip id="res_motorcycle136" depart="81.60" from="E21" to="E14" departLane='best' type="res_motorcycle_motorcycle" departSpeed='max'/>
    <trip id="res_motorcycle137" depart="82.20" from="E21" to="E13" departLane='best' type="res_motorcycle_motorcycle" departSpeed='max'/>
    <trip id="res_motorcycle138" depart="82.80" from="E21" to="E6" departLane='best' type="res_motorcycle_motorcycle" departSpeed='max'/>
    <trip id="res_motorcycle139" depart="83.40" from="E21" to="E15" departLane='best' type="res_motorcycle_motorcycle" departSpeed='max'/>
    <trip id="res_motorcycle140" depart="84.00" from="E21" to="E25" departLane='best' type="res_motorcycle_motorcycle" departSpeed='max'/>
    <trip id="res_motorcycle141" depart="84.60" from="E21" to="E10" departLane='best' type="res_motorcycle_motorcycle" departSpeed='max'/>
    <trip id="res_motorcycle142" depart="85.20" from="E21" to="E13" departLane='best' type="res_motorcycle_motorcycle" departSpeed='max'/>
    <trip id="res_motorcycle143" depart="85.80" from="E21" to="E15" departLane='best' type="res_motorcycle_motorcycle" departSpeed='max'/>
    <trip id="res_motorcycle144" depart="86.40" from="E21" to="E17" departLane='best' type="res_motorcycle_motorcycle" departSpeed='max'/>
    <trip id="res_motorcycle145" depart="87.00" from="E21" to="E25" departLane='best' type="res_motorcycle_motorcycle" departSpeed='max'/>
    <trip id="res_motorcycle146" depart="87.60" from="E21" to="E28" departLane='best' type="res_motorcycle_motorcycle" departSpeed='max'/>
    <trip id="res_motorcycle147" depart="88.20" from="E21" to="E32" departLane='best' type="res_motorcycle_motorcycle" departSpeed='max'/>
    <trip id="res_motorcycle148" depart="88.80" from="E21" to="E32" departLane='best' type="res_motorcycle_motorcycle" departSpeed='max'/>
    <trip id="res_motorcycle149" depart="89.40" from="E21" to="E30" departLane='best' type="res_motorcycle_motorcycle" departSpeed='max'/>
    <trip id="res_motorcycle150" depart="90.00" from="E21" to="E1" departLane='best' type="res_motorcycle_motorcycle" departSpeed='max'/>
    <trip id="res_motorcycle151" depart="90.60" from="E21" to="E17" departLane='best' type="res_motorcycle_motorcycle" departSpeed='max'/>
    <trip id="res_motorcycle152" depart="91.20" from="E21" to="E17" departLane='best' type="res_motorcycle_motorcycle" departSpeed='max'/>
    <trip id="res_motorcycle153" depart="91.80" from="E21" to="E15" departLane='best' type="res_motorcycle_motorcycle" departSpeed='max'/>
    <trip id="res_motorcycle154" depart="92.40" from="E21" to="E30" departLane='best' type="res_motorcycle_motorcycle" departSpeed='max'/>
    <trip id="res_motorcycle155" depart="93.00" from="E21" to="E3" departLane='best' type="res_motorcycle_motorcycle" departSpeed='max'/>
    <trip id="res_motorcycle156" depart="93.60" from="E21" to="E25" departLane='best' type="res_motorcycle_motorcycle" departSpeed='max'/>
    <trip id="res_motorcycle157" depart="94.20" from="E21" to="E15" departLane='best' type="res_motorcycle_motorcycle" departSpeed='max'/>
    <trip id="res_motorcycle158" depart="94.80" from="E21" to="E28" departLane='best' type="res_motorcycle_motorcycle" departSpeed='max'/>
    <trip id="res_motorcycle159" depart="95.40" from="E21" to="E22" departLane='best' type="res_motorcycle_motorcycle" departSpeed='max'/>
    <trip id="res_motorcycle160" depart="96.00" from="E21" to="E14" departLane='best' type="res_motorcycle_motorcycle" departSpeed='max'/>
    <trip id="res_motorcycle161" depart="96.60" from="E21" to="E13" departLane='best' type="res_motorcycle_motorcycle" departSpeed='max'/>
    <trip id="res_motorcycle162" depart="97.20" from="E21" to="E25" departLane='best' type="res_motorcycle_motorcycle" departSpeed='max'/>
    <trip id="res_motorcycle163" depart="97.80" from="E21" to="E17" departLane='best' type="res_motorcycle_motorcycle" departSpeed='max'/>
    <trip id="res_motorcycle164" depart="98.40" from="E21" to="E4" departLane='best' type="res_motorcycle_motorcycle" departSpeed='max'/>
    <trip id="res_motorcycle165" depart="99.00" from="E21" to="E14" departLane='best' type="res_motorcycle_motorcycle" departSpeed='max'/>
    <trip id="res_motorcycle166" depart="99.60" from="E21" to="E22" departLane='best' type="res_motorcycle_motorcycle" departSpeed='max'/>
    <trip id="res_motorcycle167" depart="100.20" from="E21" to="E1" departLane='best' type="res_motorcycle_motorcycle" departSpeed='max'/>
    <trip id="res_motorcycle168" depart="100.80" from="E21" to="E3" departLane='best' type="res_motorcycle_motorcycle" departSpeed='max'/>
    <trip id="res_motorcycle169" depart="101.40" from="E21" to="E30" departLane='best' type="res_motorcycle_motorcycle" departSpeed='max'/>
    <trip id="res_motorcycle170" depart="102.00" from="E21" to="E14" departLane='best' type="res_motorcycle_motorcycle" departSpeed='max'/>
    <trip id="res_motorcycle171" depart="102.60" from="E21" to="E4" departLane='best' type="res_motorcycle_motorcycle" departSpeed='max'/>
    <trip id="res_motorcycle172" depart="103.20" from="E21" to="E8" departLane='best' type="res_motorcycle_motorcycle" departSpeed='max'/>
    <trip id="res_motorcycle173" depart="103.80" from="E21" to="E1" departLane='best' type="res_motorcycle_motorcycle" departSpeed='max'/>
    <trip id="res_motorcycle174" depart="104.40" from="E21" to="E8" departLane='best' type="res_motorcycle_motorcycle" departSpeed='max'/>
    <trip id="res_motorcycle175" depart="105.00" from="E21" to="E8" departLane='best' type="res_motorcycle_motorcycle" departSpeed='max'/>
    <trip id="res_motorcycle176" depart="105.60" from="E21" to="E3" departLane='best' type="res_motorcycle_motorcycle" departSpeed='max'/>
    <trip id="res_motorcycle177" depart="106.20" from="E21" to="E25" departLane='best' type="res_motorcycle_motorcycle" departSpeed='max'/>
    <trip id="res_motorcycle178" depart="106.80" from="E21" to="E25" departLane='best' type="res_motorcycle_motorcycle" departSpeed='max'/>
    <trip id="res_motorcycle179" depart="107.40" from="E21" to="E32" departLane='best' type="res_motorcycle_motorcycle" departSpeed='max'/>
    <trip id="res_motorcycle180" depart="108.00" from="E21" to="E15" departLane='best' type="res_motorcycle_motorcycle" departSpeed='max'/>
    <trip id="res_motorcycle181" depart="108.60" from="E21" to="E3" departLane='best' type="res_motorcycle_motorcycle" departSpeed='max'/>
    <trip id="res_motorcycle182" depart="109.20" from="E21" to="E25" departLane='best' type="res_motorcycle_motorcycle" departSpeed='max'/>
    <trip id="res_motorcycle183" depart="109.80" from="E21" to="E15" departLane='best' type="res_motorcycle_motorcycle" departSpeed='max'/>
    <trip id="res_motorcycle184" depart="110.40" from="E21" to="E15" departLane='best' type="res_motorcycle_motorcycle" departSpeed='max'/>
    <trip id="res_motorcycle185" depart="111.00" from="E21" to="E17" departLane='best' type="res_motorcycle_motorcycle" departSpeed='max'/>
    <trip id="res_motorcycle186" depart="111.60" from="E21" to="E10" departLane='best' type="res_motorcycle_motorcycle" departSpeed='max'/>
    <trip id="res_motorcycle187" depart="112.20" from="E21" to="E30" departLane='best' type="res_motorcycle_motorcycle" departSpeed='max'/>
    <trip id="res_motorcycle188" depart="112.80" from="E21" to="E1" departLane='best' type="res_motorcycle_motorcycle" departSpeed='max'/>
    <trip id="res_motorcycle189" depart="113.40" from="E21" to="E25" departLane='best' type="res_motorcycle_motorcycle" departSpeed='max'/>
    <trip id="res_motorcycle190" depart="114.00" from="E21" to="E14" departLane='best' type="res_motorcycle_motorcycle" departSpeed='max'/>
    <trip id="res_motorcycle191" depart="114.60" from="E21" to="E30" departLane='best' type="res_motorcycle_motorcycle" departSpeed='max'/>
    <trip id="res_motorcycle192" depart="115.20" from="E21" to="E4" departLane='best' type="res_motorcycle_motorcycle" departSpeed='max'/>
    <trip id="res_motorcycle193" depart="115.80" from="E21" to="E4" departLane='best' type="res_motorcycle_motorcycle" departSpeed='max'/>
    <trip id="res_motorcycle194" depart="116.40" from="E21" to="E8" departLane='best' type="res_motorcycle_motorcycle" departSpeed='max'/>
    <trip id="res_motorcycle195" depart="117.00" from="E21" to="E32" departLane='best' type="res_motorcycle_motorcycle" departSpeed='max'/>
    <trip id="res_motorcycle196" depart="117.60" from="E21" to="E3" departLane='best' type="res_motorcycle_motorcycle" departSpeed='max'/>
    <trip id="res_motorcycle197" depart="118.20" from="E21" to="E14" departLane='best' type="res_motorcycle_motorcycle" departSpeed='max'/>
    <trip id="res_motorcycle198" depart="118.80" from="E21" to="E30" departLane='best' type="res_motorcycle_motorcycle" departSpeed='max'/>
    <trip id="res_motorcycle199" depart="119.40" from="E21" to="E13" departLane='best' type="res_motorcycle_motorcycle" departSpeed='max'/>
    <trip id="res_motorcycle200" depart="120.00" from="E21" to="E10" departLane='best' type="res_motorcycle_motorcycle" departSpeed='max'/>
    <trip id="res_motorcycle201" depart="120.60" from="E21" to="E28" departLane='best' type="res_motorcycle_motorcycle" departSpeed='max'/>
    <trip id="res_motorcycle202" depart="121.20" from="E21" to="E3" departLane='best' type="res_motorcycle_motorcycle" departSpeed='max'/>
    <trip id="res_motorcycle203" depart="121.80" from="E21" to="E22" departLane='best' type="res_motorcycle_motorcycle" departSpeed='max'/>
    <trip id="res_motorcycle204" depart="122.40" from="E21" to="E17" departLane='best' type="res_motorcycle_motorcycle" departSpeed='max'/>
    <trip id="res_motorcycle205" depart="123.00" from="E21" to="E1" departLane='best' type="res_motorcycle_motorcycle" departSpeed='max'/>
    <trip id="res_motorcycle206" depart="123.60" from="E21" to="E25" departLane='best' type="res_motorcycle_motorcycle" departSpeed='max'/>
    <trip id="res_motorcycle207" depart="124.20" from="E21" to="E17" departLane='best' type="res_motorcycle_motorcycle" departSpeed='max'/>
    <trip id="res_motorcycle208" depart="124.80" from="E21" to="E4" departLane='best' type="res_motorcycle_motorcycle" departSpeed='max'/>
    <trip id="res_motorcycle209" depart="125.40" from="E21" to="E4" departLane='best' type="res_motorcycle_motorcycle" departSpeed='max'/>