<?xml version="1.0" encoding="UTF-8"?>

<!-- generated on 2025-07-25 10:09:30.041628 by randomTrips.py v1_23_1+0000-676720d13f6
<configuration>
    <net-file value="osm.net.xml.gz"/>
    <weights-prefix value="random_edge_priority"/>
    <output-trip-file value="osm.res_motorcycle.trips.xml"/>
    <prefix value="res_motorcycle"/>
    <trip-attributes value="departLane='best'"/>
    <fringe-start-attributes value="departSpeed='max'"/>
    <vehicle-class value="motorcycle"/>
    <edge-permission value="motorcycle"/>
    <remove-loops value="True"/>
    <validate value="True"/>
    <insertion-rate value="6000.0"/>
</configuration>
-->

<!-- generated on 2025-07-25 10:09:29 by Eclipse SUMO duarouter Version 1.23.1
<duarouterConfiguration xmlns:xsi="http://www.w3.org/2001/XMLSchema-instance" xsi:noNamespaceSchemaLocation="http://sumo.dlr.de/xsd/duarouterConfiguration.xsd">

    <input>
        <net-file value="osm.net.xml.gz"/>
        <route-files value="osm.res_motorcycle.trips.xml"/>
    </input>

    <output>
        <output-file value="osm.res_motorcycle.trips.xml.tmp"/>
        <alternatives-output value="NUL"/>
        <write-trips value="true"/>
    </output>

    <processing>
        <remove-loops value="true"/>
    </processing>

    <time>
        <begin value="0.0"/>
        <end value="3600.0"/>
    </time>

    <report>
        <no-warnings value="true"/>
        <ignore-errors value="true"/>
        <no-step-log value="true"/>
    </report>

</duarouterConfiguration>
-->

<routes xmlns:xsi="http://www.w3.org/2001/XMLSchema-instance" xsi:noNamespaceSchemaLocation="http://sumo.dlr.de/xsd/routes_file.xsd">
    <vType id="res_motorcycle_motorcycle" vClass="motorcycle"/>
    <trip id="res_motorcycle0" type="res_motorcycle_motorcycle" depart="0.00" departLane="best" departSpeed="max" from="E21" to="E0"/>
    <trip id="res_motorcycle1" type="res_motorcycle_motorcycle" depart="0.60" departLane="best" departSpeed="max" from="E21" to="E16.294"/>
    <trip id="res_motorcycle2" type="res_motorcycle_motorcycle" depart="1.20" departLane="best" departSpeed="max" from="E21" to="E29.307"/>
    <trip id="res_motorcycle3" type="res_motorcycle_motorcycle" depart="1.80" departLane="best" departSpeed="max" from="E21" to="E13"/>
    <trip id="res_motorcycle4" type="res_motorcycle_motorcycle" depart="2.40" departLane="best" departSpeed="max" from="E21" to="E1"/>
    <trip id="res_motorcycle5" type="res_motorcycle_motorcycle" depart="3.00" departLane="best" departSpeed="max" from="E21" to="E25"/>
    <trip id="res_motorcycle6" type="res_motorcycle_motorcycle" depart="3.60" departLane="best" departSpeed="max" from="E21" to="E15.463"/>
    <trip id="res_motorcycle7" type="res_motorcycle_motorcycle" depart="4.20" departLane="best" departSpeed="max" from="E21" to="E25.506"/>
    <trip id="res_motorcycle8" type="res_motorcycle_motorcycle" depart="4.80" departLane="best" departSpeed="max" from="E21" to="E27.479"/>
    <trip id="res_motorcycle9" type="res_motorcycle_motorcycle" depart="5.40" departLane="best" departSpeed="max" from="E21" to="E0"/>
    <trip id="res_motorcycle10" type="res_motorcycle_motorcycle" depart="6.00" departLane="best" departSpeed="max" from="E21" to="E3"/>
    <trip id="res_motorcycle11" type="res_motorcycle_motorcycle" depart="6.60" departLane="best" departSpeed="max" from="E21" to="E14.453"/>
    <trip id="res_motorcycle12" type="res_motorcycle_motorcycle" depart="7.20" departLane="best" departSpeed="max" from="E21" to="E32"/>
    <trip id="res_motorcycle13" type="res_motorcycle_motorcycle" depart="7.80" departLane="best" departSpeed="max" from="E21" to="E13"/>
    <trip id="res_motorcycle14" type="res_motorcycle_motorcycle" depart="8.40" departLane="best" departSpeed="max" from="E21" to="E27.479"/>
    <trip id="res_motorcycle15" type="res_motorcycle_motorcycle" depart="9.00" departLane="best" departSpeed="max" from="E21" to="E30"/>
    <trip id="res_motorcycle16" type="res_motorcycle_motorcycle" depart="9.60" departLane="best" departSpeed="max" from="E21" to="E8"/>
    <trip id="res_motorcycle17" type="res_motorcycle_motorcycle" depart="10.20" departLane="best" departSpeed="max" from="E21" to="E25.506"/>
    <trip id="res_motorcycle18" type="res_motorcycle_motorcycle" depart="10.80" departLane="best" departSpeed="max" from="E21" to="E28"/>
    <trip id="res_motorcycle19" type="res_motorcycle_motorcycle" depart="11.40" departLane="best" departSpeed="max" from="E21" to="E26.415"/>
    <trip id="res_motorcycle20" type="res_motorcycle_motorcycle" depart="12.00" departLane="best" departSpeed="max" from="E21" to="E1"/>
    <trip id="res_motorcycle21" type="res_motorcycle_motorcycle" depart="12.60" departLane="best" departSpeed="max" from="E21" to="E17.564"/>
    <trip id="res_motorcycle22" type="res_motorcycle_motorcycle" depart="13.20" departLane="best" departSpeed="max" from="E21" to="E16.294"/>
    <trip id="res_motorcycle23" type="res_motorcycle_motorcycle" depart="13.80" departLane="best" departSpeed="max" from="E21" to="E17.564"/>
    <trip id="res_motorcycle24" type="res_motorcycle_motorcycle" depart="14.40" departLane="best" departSpeed="max" from="E21" to="E20"/>
    <trip id="res_motorcycle25" type="res_motorcycle_motorcycle" depart="15.00" departLane="best" departSpeed="max" from="E21" to="E15.463"/>
    <trip id="res_motorcycle26" type="res_motorcycle_motorcycle" depart="15.60" departLane="best" departSpeed="max" from="E21" to="E6"/>
    <trip id="res_motorcycle27" type="res_motorcycle_motorcycle" depart="16.20" departLane="best" departSpeed="max" from="E21" to="E27.479"/>
    <trip id="res_motorcycle28" type="res_motorcycle_motorcycle" depart="16.80" departLane="best" departSpeed="max" from="E21" to="E30"/>
    <trip id="res_motorcycle29" type="res_motorcycle_motorcycle" depart="17.40" departLane="best" departSpeed="max" from="E21" to="E20"/>
    <trip id="res_motorcycle30" type="res_motorcycle_motorcycle" depart="18.00" departLane="best" departSpeed="max" from="E21" to="E28.467"/>
    <trip id="res_motorcycle31" type="res_motorcycle_motorcycle" depart="18.60" departLane="best" departSpeed="max" from="E21" to="E29.307"/>
    <trip id="res_motorcycle32" type="res_motorcycle_motorcycle" depart="19.20" departLane="best" departSpeed="max" from="E21" to="E30.558"/>
    <trip id="res_motorcycle33" type="res_motorcycle_motorcycle" depart="19.80" departLane="best" departSpeed="max" from="E21" to="E1"/>
    <trip id="res_motorcycle34" type="res_motorcycle_motorcycle" depart="20.40" departLane="best" departSpeed="max" from="E21" to="E17"/>
    <trip id="res_motorcycle35" type="res_motorcycle_motorcycle" depart="21.00" departLane="best" departSpeed="max" from="E21" to="E6"/>
    <trip id="res_motorcycle36" type="res_motorcycle_motorcycle" depart="21.60" departLane="best" departSpeed="max" from="E21" to="E18.410"/>
    <trip id="res_motorcycle37" type="res_motorcycle_motorcycle" depart="22.20" departLane="best" departSpeed="max" from="E21" to="E22"/>
    <trip id="res_motorcycle38" type="res_motorcycle_motorcycle" depart="22.80" departLane="best" departSpeed="max" from="E21" to="E3"/>
    <trip id="res_motorcycle39" type="res_motorcycle_motorcycle" depart="23.40" departLane="best" departSpeed="max" from="E21" to="E16.294"/>
    <trip id="res_motorcycle40" type="res_motorcycle_motorcycle" depart="24.00" departLane="best" departSpeed="max" from="E21" to="E17"/>
    <trip id="res_motorcycle41" type="res_motorcycle_motorcycle" depart="24.60" departLane="best" departSpeed="max" from="E21" to="E5"/>
    <trip id="res_motorcycle42" type="res_motorcycle_motorcycle" depart="25.20" departLane="best" departSpeed="max" from="E21" to="E15.463"/>
    <trip id="res_motorcycle43" type="res_motorcycle_motorcycle" depart="25.80" departLane="best" departSpeed="max" from="E21" to="E25"/>
    <trip id="res_motorcycle44" type="res_motorcycle_motorcycle" depart="26.40" departLane="best" departSpeed="max" from="E21" to="E1"/>
    <trip id="res_motorcycle45" type="res_motorcycle_motorcycle" depart="27.00" departLane="best" departSpeed="max" from="E21" to="E28"/>
    <trip id="res_motorcycle46" type="res_motorcycle_motorcycle" depart="27.60" departLane="best" departSpeed="max" from="E21" to="E22.488"/>
    <trip id="res_motorcycle47" type="res_motorcycle_motorcycle" depart="28.20" departLane="best" departSpeed="max" from="E21" to="E20"/>
    <trip id="res_motorcycle48" type="res_motorcycle_motorcycle" depart="28.80" departLane="best" departSpeed="max" from="E21" to="E25.506"/>
    <trip id="res_motorcycle49" type="res_motorcycle_motorcycle" depart="29.40" departLane="best" departSpeed="max" from="E21" to="E32.461"/>
    <trip id="res_motorcycle50" type="res_motorcycle_motorcycle" depart="30.00" departLane="best" departSpeed="max" from="E21" to="E3"/>
    <trip id="res_motorcycle51" type="res_motorcycle_motorcycle" depart="30.60" departLane="best" departSpeed="max" from="E21" to="E25.506"/>
    <trip id="res_motorcycle52" type="res_motorcycle_motorcycle" depart="31.20" departLane="best" departSpeed="max" from="E21" to="E28.467"/>
    <trip id="res_motorcycle53" type="res_motorcycle_motorcycle" depart="31.80" departLane="best" departSpeed="max" from="E21" to="E22.488"/>
    <trip id="res_motorcycle54" type="res_motorcycle_motorcycle" depart="32.40" departLane="best" departSpeed="max" from="E21" to="E4"/>
    <trip id="res_motorcycle55" type="res_motorcycle_motorcycle" depart="33.00" departLane="best" departSpeed="max" from="E21" to="E17"/>
    <trip id="res_motorcycle56" type="res_motorcycle_motorcycle" depart="33.60" departLane="best" departSpeed="max" from="E21" to="E15"/>
    <trip id="res_motorcycle57" type="res_motorcycle_motorcycle" depart="34.20" departLane="best" departSpeed="max" from="E21" to="E4"/>
    <trip id="res_motorcycle58" type="res_motorcycle_motorcycle" depart="34.80" departLane="best" departSpeed="max" from="E21" to="E28.467"/>
    <trip id="res_motorcycle59" type="res_motorcycle_motorcycle" depart="35.40" departLane="best" departSpeed="max" from="E21" to="E14.453"/>
    <trip id="res_motorcycle60" type="res_motorcycle_motorcycle" depart="36.00" departLane="best" departSpeed="max" from="E21" to="E25.506"/>
    <trip id="res_motorcycle61" type="res_motorcycle_motorcycle" depart="36.60" departLane="best" departSpeed="max" from="E21" to="E25.506"/>
    <trip id="res_motorcycle62" type="res_motorcycle_motorcycle" depart="37.20" departLane="best" departSpeed="max" from="E21" to="E18.410"/>
    <trip id="res_motorcycle63" type="res_motorcycle_motorcycle" depart="37.80" departLane="best" departSpeed="max" from="E21" to="E6"/>
    <trip id="res_motorcycle64" type="res_motorcycle_motorcycle" depart="38.40" departLane="best" departSpeed="max" from="E21" to="E32"/>
    <trip id="res_motorcycle65" type="res_motorcycle_motorcycle" depart="39.00" departLane="best" departSpeed="max" from="E21" to="E10"/>
    <trip id="res_motorcycle66" type="res_motorcycle_motorcycle" depart="39.60" departLane="best" departSpeed="max" from="E21" to="E4"/>
    <trip id="res_motorcycle67" type="res_motorcycle_motorcycle" depart="40.20" departLane="best" departSpeed="max" from="E21" to="E24.357"/>
    <trip id="res_motorcycle68" type="res_motorcycle_motorcycle" depart="40.80" departLane="best" departSpeed="max" from="E21" to="E30.558"/>
    <trip id="res_motorcycle69" type="res_motorcycle_motorcycle" depart="41.40" departLane="best" departSpeed="max" from="E21" to="E14"/>
    <trip id="res_motorcycle70" type="res_motorcycle_motorcycle" depart="42.00" departLane="best" departSpeed="max" from="E21" to="E25.506"/>
    <trip id="res_motorcycle71" type="res_motorcycle_motorcycle" depart="42.60" departLane="best" departSpeed="max" from="E21" to="E4"/>
    <trip id="res_motorcycle72" type="res_motorcycle_motorcycle" depart="43.20" departLane="best" departSpeed="max" from="E21" to="E15.463"/>
    <trip id="res_motorcycle73" type="res_motorcycle_motorcycle" depart="43.80" departLane="best" departSpeed="max" from="E21" to="E30"/>
    <trip id="res_motorcycle74" type="res_motorcycle_motorcycle" depart="44.40" departLane="best" departSpeed="max" from="E21" to="E18.410"/>
    <trip id="res_motorcycle75" type="res_motorcycle_motorcycle" depart="45.00" departLane="best" departSpeed="max" from="E21" to="E28.467"/>
    <trip id="res_motorcycle76" type="res_motorcycle_motorcycle" depart="45.60" departLane="best" departSpeed="max" from="E21" to="E25"/>
    <trip id="res_motorcycle77" type="res_motorcycle_motorcycle" depart="46.20" departLane="best" departSpeed="max" from="E21" to="E16.294"/>
    <trip id="res_motorcycle78" type="res_motorcycle_motorcycle" depart="46.80" departLane="best" departSpeed="max" from="E21" to="E27.479"/>
    <trip id="res_motorcycle79" type="res_motorcycle_motorcycle" depart="47.40" departLane="best" departSpeed="max" from="E21" to="E15.463"/>
    <trip id="res_motorcycle80" type="res_motorcycle_motorcycle" depart="48.00" departLane="best" departSpeed="max" from="E21" to="E28"/>
    <trip id="res_motorcycle81" type="res_motorcycle_motorcycle" depart="48.60" departLane="best" departSpeed="max" from="E21" to="E5"/>
    <trip id="res_motorcycle82" type="res_motorcycle_motorcycle" depart="49.20" departLane="best" departSpeed="max" from="E21" to="E10"/>
    <trip id="res_motorcycle83" type="res_motorcycle_motorcycle" depart="49.80" departLane="best" departSpeed="max" from="E21" to="E29.307"/>
    <trip id="res_motorcycle84" type="res_motorcycle_motorcycle" depart="50.40" departLane="best" departSpeed="max" from="E21" to="E14"/>
    <trip id="res_motorcycle85" type="res_motorcycle_motorcycle" depart="51.00" departLane="best" departSpeed="max" from="E21" to="E26.415"/>
    <trip id="res_motorcycle86" type="res_motorcycle_motorcycle" depart="51.60" departLane="best" departSpeed="max" from="E21" to="E3"/>
    <trip id="res_motorcycle87" type="res_motorcycle_motorcycle" depart="52.20" departLane="best" departSpeed="max" from="E21" to="E15"/>
    <trip id="res_motorcycle88" type="res_motorcycle_motorcycle" depart="52.80" departLane="best" departSpeed="max" from="E21" to="E22.488"/>
    <trip id="res_motorcycle89" type="res_motorcycle_motorcycle" depart="53.40" departLane="best" departSpeed="max" from="E21" to="E3"/>
    <trip id="res_motorcycle90" type="res_motorcycle_motorcycle" depart="54.00" departLane="best" departSpeed="max" from="E21" to="E29.307"/>
    <trip id="res_motorcycle91" type="res_motorcycle_motorcycle" depart="54.60" departLane="best" departSpeed="max" from="E21" to="E13"/>
    <trip id="res_motorcycle92" type="res_motorcycle_motorcycle" depart="55.20" departLane="best" departSpeed="max" from="E21" to="E32"/>
    <trip id="res_motorcycle93" type="res_motorcycle_motorcycle" depart="55.80" departLane="best" departSpeed="max" from="E21" to="E16.294"/>
    <trip id="res_motorcycle94" type="res_motorcycle_motorcycle" depart="56.40" departLane="best" departSpeed="max" from="E21" to="E3"/>
    <trip id="res_motorcycle95" type="res_motorcycle_motorcycle" depart="57.00" departLane="best" departSpeed="max" from="E21" to="E17.564"/>
    <trip id="res_motorcycle96" type="res_motorcycle_motorcycle" depart="57.60" departLane="best" departSpeed="max" from="E21" to="E6"/>
    <trip id="res_motorcycle97" type="res_motorcycle_motorcycle" depart="58.20" departLane="best" departSpeed="max" from="E21" to="E4"/>
    <trip id="res_motorcycle98" type="res_motorcycle_motorcycle" depart="58.80" departLane="best" departSpeed="max" from="E21" to="E1"/>
    <trip id="res_motorcycle99" type="res_motorcycle_motorcycle" depart="59.40" departLane="best" departSpeed="max" from="E21" to="E32.461"/>
    <trip id="res_motorcycle100" type="res_motorcycle_motorcycle" depart="60.00" departLane="best" departSpeed="max" from="E21" to="E6"/>
    <trip id="res_motorcycle101" type="res_motorcycle_motorcycle" depart="60.60" departLane="best" departSpeed="max" from="E21" to="E14.453"/>
    <trip id="res_motorcycle102" type="res_motorcycle_motorcycle" depart="61.20" departLane="best" departSpeed="max" from="E21" to="E15.463"/>
    <trip id="res_motorcycle103" type="res_motorcycle_motorcycle" depart="61.80" departLane="best" departSpeed="max" from="E21" to="E10"/>
    <trip id="res_motorcycle104" type="res_motorcycle_motorcycle" depart="62.40" departLane="best" departSpeed="max" from="E21" to="E8"/>
    <trip id="res_motorcycle105" type="res_motorcycle_motorcycle" depart="63.00" departLane="best" departSpeed="max" from="E21" to="E3"/>
    <trip id="res_motorcycle106" type="res_motorcycle_motorcycle" depart="63.60" departLane="best" departSpeed="max" from="E21" to="E22.488"/>
    <trip id="res_motorcycle107" type="res_motorcycle_motorcycle" depart="64.20" departLane="best" departSpeed="max" from="E21" to="E8"/>
    <trip id="res_motorcycle108" type="res_motorcycle_motorcycle" depart="64.80" departLane="best" departSpeed="max" from="E21" to="E3"/>
    <trip id="res_motorcycle109" type="res_motorcycle_motorcycle" depart="65.40" departLane="best" departSpeed="max" from="E21" to="E17.564"/>
    <trip id="res_motorcycle110" type="res_motorcycle_motorcycle" depart="66.00" departLane="best" departSpeed="max" from="E21" to="E26.415"/>
    <trip id="res_motorcycle111" type="res_motorcycle_motorcycle" depart="66.60" departLane="best" departSpeed="max" from="E21" to="E30"/>
    <trip id="res_motorcycle112" type="res_motorcycle_motorcycle" depart="67.20" departLane="best" departSpeed="max" from="E21" to="E27.479"/>
    <trip id="res_motorcycle113" type="res_motorcycle_motorcycle" depart="67.80" departLane="best" departSpeed="max" from="E21" to="E32.461"/>
    <trip id="res_motorcycle114" type="res_motorcycle_motorcycle" depart="68.40" departLane="best" departSpeed="max" from="E21" to="E4"/>
    <trip id="res_motorcycle115" type="res_motorcycle_motorcycle" depart="69.00" departLane="best" departSpeed="max" from="E21" to="E15"/>
    <trip id="res_motorcycle116" type="res_motorcycle_motorcycle" depart="69.60" departLane="best" departSpeed="max" from="E21" to="E29.307"/>
    <trip id="res_motorcycle117" type="res_motorcycle_motorcycle" depart="70.20" departLane="best" departSpeed="max" from="E21" to="E14"/>
    <trip id="res_motorcycle118" type="res_motorcycle_motorcycle" depart="70.80" departLane="best" departSpeed="max" from="E21" to="E16.294"/>
    <trip id="res_motorcycle119" type="res_motorcycle_motorcycle" depart="71.40" departLane="best" departSpeed="max" from="E21" to="E28"/>
    <trip id="res_motorcycle120" type="res_motorcycle_motorcycle" depart="72.00" departLane="best" departSpeed="max" from="E21" to="E27.479"/>
    <trip id="res_motorcycle121" type="res_motorcycle_motorcycle" depart="72.60" departLane="best" departSpeed="max" from="E21" to="E6"/>
    <trip id="res_motorcycle122" type="res_motorcycle_motorcycle" depart="73.20" departLane="best" departSpeed="max" from="E21" to="E3"/>
    <trip id="res_motorcycle123" type="res_motorcycle_motorcycle" depart="73.80" departLane="best" departSpeed="max" from="E21" to="E22"/>
    <trip id="res_motorcycle124" type="res_motorcycle_motorcycle" depart="74.40" departLane="best" departSpeed="max" from="E21" to="E17.564"/>
    <trip id="res_motorcycle125" type="res_motorcycle_motorcycle" depart="75.00" departLane="best" departSpeed="max" from="E21" to="E30.558"/>
    <trip id="res_motorcycle126" type="res_motorcycle_motorcycle" depart="75.60" departLane="best" departSpeed="max" from="E21" to="E3"/>
    <trip id="res_motorcycle127" type="res_motorcycle_motorcycle" depart="76.20" departLane="best" departSpeed="max" from="E21" to="E8"/>
    <trip id="res_motorcycle128" type="res_motorcycle_motorcycle" depart="76.80" departLane="best" departSpeed="max" from="E21" to="E15.463"/>
    <trip id="res_motorcycle129" type="res_motorcycle_motorcycle" depart="77.40" departLane="best" departSpeed="max" from="E21" to="E6"/>
    <trip id="res_motorcycle130" type="res_motorcycle_motorcycle" depart="78.00" departLane="best" departSpeed="max" from="E21" to="E4"/>
    <trip id="res_motorcycle131" type="res_motorcycle_motorcycle" depart="78.60" departLane="best" departSpeed="max" from="E21" to="E14.453"/>
    <trip id="res_motorcycle132" type="res_motorcycle_motorcycle" depart="79.20" departLane="best" departSpeed="max" from="E21" to="E3"/>
    <trip id="res_motorcycle133" type="res_motorcycle_motorcycle" depart="79.80" departLane="best" departSpeed="max" from="E21" to="E8"/>
    <trip id="res_motorcycle134" type="res_motorcycle_motorcycle" depart="80.40" departLane="best" departSpeed="max" from="E21" to="E0"/>
    <trip id="res_motorcycle135" type="res_motorcycle_motorcycle" depart="81.00" departLane="best" departSpeed="max" from="E21" to="E17.564"/>
    <trip id="res_motorcycle136" type="res_motorcycle_motorcycle" depart="81.60" departLane="best" departSpeed="max" from="E21" to="E6"/>
    <trip id="res_motorcycle137" type="res_motorcycle_motorcycle" depart="82.20" departLane="best" departSpeed="max" from="E21" to="E14"/>
    <trip id="res_motorcycle138" type="res_motorcycle_motorcycle" depart="82.80" departLane="best" departSpeed="max" from="E21" to="E25.506"/>
    <trip id="res_motorcycle139" type="res_motorcycle_motorcycle" depart="83.40" departLane="best" departSpeed="max" from="E21" to="E27.479"/>
    <trip id="res_motorcycle140" type="res_motorcycle_motorcycle" depart="84.00" departLane="best" departSpeed="max" from="E21" to="E15.463"/>
    <trip id="res_motorcycle141" type="res_motorcycle_motorcycle" depart="84.60" departLane="best" departSpeed="max" from="E21" to="E17"/>
    <trip id="res_motorcycle142" type="res_motorcycle_motorcycle" depart="85.20" departLane="best" departSpeed="max" from="E21" to="E5"/>
    <trip id="res_motorcycle143" type="res_motorcycle_motorcycle" depart="85.80" departLane="best" departSpeed="max" from="E21" to="E13"/>
    <trip id="res_motorcycle144" type="res_motorcycle_motorcycle" depart="86.40" departLane="best" departSpeed="max" from="E21" to="E17"/>
    <trip id="res_motorcycle145" type="res_motorcycle_motorcycle" depart="87.00" departLane="best" departSpeed="max" from="E21" to="E30.558"/>
    <trip id="res_motorcycle146" type="res_motorcycle_motorcycle" depart="87.60" departLane="best" departSpeed="max" from="E21" to="E17"/>
    <trip id="res_motorcycle147" type="res_motorcycle_motorcycle" depart="88.20" departLane="best" departSpeed="max" from="E21" to="E25.506"/>
    <trip id="res_motorcycle148" type="res_motorcycle_motorcycle" depart="88.80" departLane="best" departSpeed="max" from="E21" to="E0"/>
    <trip id="res_motorcycle149" type="res_motorcycle_motorcycle" depart="89.40" departLane="best" departSpeed="max" from="E21" to="E4"/>
    <trip id="res_motorcycle150" type="res_motorcycle_motorcycle" depart="90.00" departLane="best" departSpeed="max" from="E21" to="E25.506"/>
    <trip id="res_motorcycle151" type="res_motorcycle_motorcycle" depart="90.60" departLane="best" departSpeed="max" from="E21" to="E26.415"/>
    <trip id="res_motorcycle152" type="res_motorcycle_motorcycle" depart="91.20" departLane="best" departSpeed="max" from="E21" to="E14"/>
    <trip id="res_motorcycle153" type="res_motorcycle_motorcycle" depart="91.80" departLane="best" departSpeed="max" from="E21" to="E5"/>
    <trip id="res_motorcycle154" type="res_motorcycle_motorcycle" depart="92.40" departLane="best" departSpeed="max" from="E21" to="E32.461"/>
    <trip id="res_motorcycle155" type="res_motorcycle_motorcycle" depart="93.00" departLane="best" departSpeed="max" from="E21" to="E15.463"/>
    <trip id="res_motorcycle156" type="res_motorcycle_motorcycle" depart="93.60" departLane="best" departSpeed="max" from="E21" to="E13"/>
    <trip id="res_motorcycle157" type="res_motorcycle_motorcycle" depart="94.20" departLane="best" departSpeed="max" from="E21" to="E4"/>
    <trip id="res_motorcycle158" type="res_motorcycle_motorcycle" depart="94.80" departLane="best" departSpeed="max" from="E21" to="E28"/>
    <trip id="res_motorcycle159" type="res_motorcycle_motorcycle" depart="95.40" departLane="best" departSpeed="max" from="E21" to="E6"/>
    <trip id="res_motorcycle160" type="res_motorcycle_motorcycle" depart="96.00" departLane="best" departSpeed="max" from="E21" to="E8"/>
    <trip id="res_motorcycle161" type="res_motorcycle_motorcycle" depart="96.60" departLane="best" departSpeed="max" from="E21" to="E4"/>
    <trip id="res_motorcycle162" type="res_motorcycle_motorcycle" depart="97.20" departLane="best" departSpeed="max" from="E21" to="E30"/>
    <trip id="res_motorcycle163" type="res_motorcycle_motorcycle" depart="97.80" departLane="best" departSpeed="max" from="E21" to="E6"/>
    <trip id="res_motorcycle164" type="res_motorcycle_motorcycle" depart="98.40" departLane="best" departSpeed="max" from="E21" to="E4"/>
    <trip id="res_motorcycle165" type="res_motorcycle_motorcycle" depart="99.00" departLane="best" departSpeed="max" from="E21" to="E17"/>
    <trip id="res_motorcycle166" type="res_motorcycle_motorcycle" depart="99.60" departLane="best" departSpeed="max" from="E21" to="E13"/>
    <trip id="res_motorcycle167" type="res_motorcycle_motorcycle" depart="100.20" departLane="best" departSpeed="max" from="E21" to="E32.461"/>
    <trip id="res_motorcycle168" type="res_motorcycle_motorcycle" depart="100.80" departLane="best" departSpeed="max" from="E21" to="E32"/>
    <trip id="res_motorcycle169" type="res_motorcycle_motorcycle" depart="101.40" departLane="best" departSpeed="max" from="E21" to="E17.564"/>
    <trip id="res_motorcycle170" type="res_motorcycle_motorcycle" depart="102.00" departLane="best" departSpeed="max" from="E21" to="E16.294"/>
    <trip id="res_motorcycle171" type="res_motorcycle_motorcycle" depart="102.60" departLane="best" departSpeed="max" from="E21" to="E15"/>
    <trip id="res_motorcycle172" type="res_motorcycle_motorcycle" depart="103.20" departLane="best" departSpeed="max" from="E21" to="E4"/>
    <trip id="res_motorcycle173" type="res_motorcycle_motorcycle" depart="103.80" departLane="best" departSpeed="max" from="E21" to="E17.564"/>
    <trip id="res_motorcycle174" type="res_motorcycle_motorcycle" depart="104.40" departLane="best" departSpeed="max" from="E21" to="E22"/>
    <trip id="res_motorcycle175" type="res_motorcycle_motorcycle" depart="105.00" departLane="best" departSpeed="max" from="E21" to="E25.506"/>
    <trip id="res_motorcycle176" type="res_motorcycle_motorcycle" depart="105.60" departLane="best" departSpeed="max" from="E21" to="E14"/>
    <trip id="res_motorcycle177" type="res_motorcycle_motorcycle" depart="106.20" departLane="best" departSpeed="max" from="E21" to="E15"/>
    <trip id="res_motorcycle178" type="res_motorcycle_motorcycle" depart="106.80" departLane="best" departSpeed="max" from="E21" to="E17"/>
    <trip id="res_motorcycle179" type="res_motorcycle_motorcycle" depart="107.40" departLane="best" departSpeed="max" from="E21" to="E22.488"/>
    <trip id="res_motorcycle180" type="res_motorcycle_motorcycle" depart="108.00" departLane="best" departSpeed="max" from="E21" to="E18.410"/>
    <trip id="res_motorcycle181" type="res_motorcycle_motorcycle" depart="108.60" departLane="best" departSpeed="max" from="E21" to="E25"/>
    <trip id="res_motorcycle182" type="res_motorcycle_motorcycle" depart="109.20" departLane="best" departSpeed="max" from="E21" to="E26.415"/>
    <trip id="res_motorcycle183" type="res_motorcycle_motorcycle" depart="109.80" departLane="best" departSpeed="max" from="E21" to="E3"/>
    <trip id="res_motorcycle184" type="res_motorcycle_motorcycle" depart="110.40" departLane="best" departSpeed="max" from="E21" to="E6"/>
    <trip id="res_motorcycle185" type="res_motorcycle_motorcycle" depart="111.00" departLane="best" departSpeed="max" from="E21" to="E3"/>
    <trip id="res_motorcycle186" type="res_motorcycle_motorcycle" depart="111.60" departLane="best" departSpeed="max" from="E21" to="E29.307"/>
    <trip id="res_motorcycle187" type="res_motorcycle_motorcycle" depart="112.20" departLane="best" departSpeed="max" from="E21" to="E10"/>
    <trip id="res_motorcycle188" type="res_motorcycle_motorcycle" depart="112.80" departLane="best" departSpeed="max" from="E21" to="E18.410"/>
    <trip id="res_motorcycle189" type="res_motorcycle_motorcycle" depart="113.40" departLane="best" departSpeed="max" from="E21" to="E32.461"/>
    <trip id="res_motorcycle190" type="res_motorcycle_motorcycle" depart="114.00" departLane="best" departSpeed="max" from="E21" to="E17.564"/>
    <trip id="res_motorcycle191" type="res_motorcycle_motorcycle" depart="114.60" departLane="best" departSpeed="max" from="E21" to="E22"/>
    <trip id="res_motorcycle192" type="res_motorcycle_motorcycle" depart="115.20" departLane="best" departSpeed="max" from="E21" to="E17.564"/>
    <trip id="res_motorcycle193" type="res_motorcycle_motorcycle" depart="115.80" departLane="best" departSpeed="max" from="E21" to="E22.488"/>
    <trip id="res_motorcycle194" type="res_motorcycle_motorcycle" depart="116.40" departLane="best" departSpeed="max" from="E21" to="E29.307"/>
    <trip id="res_motorcycle195" type="res_motorcycle_motorcycle" depart="117.00" departLane="best" departSpeed="max" from="E21" to="E28"/>
    <trip id="res_motorcycle196" type="res_motorcycle_motorcycle" depart="117.60" departLane="best" departSpeed="max" from="E21" to="E25.506"/>
    <trip id="res_motorcycle197" type="res_motorcycle_motorcycle" depart="118.20" departLane="best" departSpeed="max" from="E21" to="E17.564"/>
    <trip id="res_motorcycle198" type="res_motorcycle_motorcycle" depart="118.80" departLane="best" departSpeed="max" from="E21" to="E26.415"/>
    <trip id="res_motorcycle199" type="res_motorcycle_motorcycle" depart="119.40" departLane="best" departSpeed="max" from="E21" to="E3"/>
    <trip id="res_motorcycle200" type="res_motorcycle_motorcycle" depart="120.00" departLane="best" departSpeed="max" from="E21" to="E15.463"/>
    <trip id="res_motorcycle201" type="res_motorcycle_motorcycle" depart="120.60" departLane="best" departSpeed="max" from="E21" to="E5"/>