<?xml version="1.0" encoding="UTF-8"?>

<!-- generated on 2025-07-19 11:41:07.351381 by randomTrips.py v1_23_1+0000-676720d13f6
<configuration>
    <net-file value="osm.net.xml.gz"/>
    <weights-prefix value="res_veh_overflow_west"/>
    <output-trip-file value="osm.res_veh.trips.xml"/>
    <prefix value="res_veh"/>
    <trip-attributes value="departLane='best'"/>
    <fringe-start-attributes value="departSpeed='max'"/>
    <edge-permission value="passenger"/>
    <remove-loops value="True"/>
    <validate value="True"/>
    <insertion-rate value="376.0"/>
</configuration>
-->

<routes xmlns:xsi="http://www.w3.org/2001/XMLSchema-instance" xsi:noNamespaceSchemaLocation="http://sumo.dlr.de/xsd/routes_file.xsd">
    <trip id="res_veh0" depart="0.00" from="E5" to="E1" departLane='best'/>
    <trip id="res_veh1" depart="9.57" from="E11" to="E20" departLane='best' departSpeed='max'/>
    <trip id="res_veh2" depart="19.15" from="E11" to="E22" departLane='best' departSpeed='max'/>
    <trip id="res_veh3" depart="28.72" from="E4" to="E4" departLane='best'/>
    <trip id="res_veh4" depart="38.30" from="E16" to="E10" departLane='best' departSpeed='max'/>
    <trip id="res_veh5" depart="47.87" from="E7" to="E15" departLane='best'/>
    <trip id="res_veh6" depart="57.45" from="E5" to="E22" departLane='best'/>
    <trip id="res_veh7" depart="67.02" from="E4" to="E4" departLane='best'/>
    <trip id="res_veh8" depart="76.60" from="E16" to="E20" departLane='best' departSpeed='max'/>
    <trip id="res_veh9" depart="86.17" from="E5" to="E22" departLane='best'/>
    <trip id="res_veh10" depart="95.74" from="E5" to="E22" departLane='best'/>
    <trip id="res_veh11" depart="105.32" from="E11" to="E14" departLane='best' departSpeed='max'/>
    <trip id="res_veh12" depart="114.89" from="E21" to="E15" departLane='best' departSpeed='max'/>
    <trip id="res_veh13" depart="124.47" from="E16" to="E13" departLane='best' departSpeed='max'/>
    <trip id="res_veh14" depart="134.04" from="E12" to="E7" departLane='best' departSpeed='max'/>
    <trip id="res_veh15" depart="143.62" from="E21" to="E22" departLane='best' departSpeed='max'/>
    <trip id="res_veh16" depart="153.19" from="E11" to="E17" departLane='best' departSpeed='max'/>
    <trip id="res_veh17" depart="162.77" from="E5" to="E5" departLane='best'/>
    <trip id="res_veh18" depart="172.34" from="E14" to="E14" departLane='best'/>
    <trip id="res_veh19" depart="181.91" from="E11" to="E8" departLane='best' departSpeed='max'/>
    <trip id="res_veh20" depart="191.49" from="E5" to="E15" departLane='best'/>
    <trip id="res_veh21" depart="201.06" from="E5" to="E2" departLane='best'/>
    <trip id="res_veh22" depart="210.64" from="E11" to="E13" departLane='best' departSpeed='max'/>
    <trip id="res_veh23" depart="220.21" from="E19" to="E7" departLane='best' departSpeed='max'/>
    <trip id="res_veh24" depart="229.79" from="E16" to="E13" departLane='best' departSpeed='max'/>
    <trip id="res_veh25" depart="239.36" from="E9" to="E20" departLane='best' departSpeed='max'/>
    <trip id="res_veh26" depart="248.94" from="E4" to="E17" departLane='best'/>
    <trip id="res_veh27" depart="258.51" from="E9" to="E20" departLane='best' departSpeed='max'/>
    <trip id="res_veh28" depart="268.09" from="E0" to="E4" departLane='best'/>
    <trip id="res_veh29" depart="277.66" from="E23" to="E20" departLane='best' departSpeed='max'/>
    <trip id="res_veh30" depart="287.23" from="E5" to="E14" departLane='best'/>
    <trip id="res_veh31" depart="296.81" from="E5" to="E6" departLane='best'/>
    <trip id="res_veh32" depart="306.38" from="E5" to="E6" departLane='best'/>
    <trip id="res_veh33" depart="315.96" from="E5" to="E8" departLane='best'/>
    <trip id="res_veh34" depart="325.53" from="E4" to="E10" departLane='best'/>
    <trip id="res_veh35" depart="335.11" from="E11" to="E6" departLane='best' departSpeed='max'/>
    <trip id="res_veh36" depart="344.68" from="E16" to="E13" departLane='best' departSpeed='max'/>
    <trip id="res_veh37" depart="354.26" from="E11" to="E14" departLane='best' departSpeed='max'/>
    <trip id="res_veh38" depart="363.83" from="E16" to="E20" departLane='best' departSpeed='max'/>
    <trip id="res_veh39" depart="373.40" from="E16" to="E22" departLane='best' departSpeed='max'/>
    <trip id="res_veh40" depart="382.98" from="E11" to="E13" departLane='best' departSpeed='max'/>
    <trip id="res_veh41" depart="392.55" from="E5" to="E1" departLane='best'/>
    <trip id="res_veh42" depart="402.13" from="E16" to="E2" departLane='best' departSpeed='max'/>
    <trip id="res_veh43" depart="411.70" from="E16" to="E15" departLane='best' departSpeed='max'/>
    <trip id="res_veh44" depart="421.28" from="E5" to="E13" departLane='best'/>
    <trip id="res_veh45" depart="430.85" from="E11" to="E2" departLane='best' departSpeed='max'/>
    <trip id="res_veh46" depart="440.43" from="E16" to="E14" departLane='best' departSpeed='max'/>
    <trip id="res_veh47" depart="450.00" from="E16" to="E6" departLane='best' departSpeed='max'/>
    <trip id="res_veh48" depart="459.57" from="E9" to="E6" departLane='best' departSpeed='max'/>
    <trip id="res_veh49" depart="469.15" from="E16" to="E8" departLane='best' departSpeed='max'/>
    <trip id="res_veh50" depart="478.72" from="E11" to="E5" departLane='best' departSpeed='max'/>
    <trip id="res_veh51" depart="488.30" from="E17" to="E17" departLane='best'/>
    <trip id="res_veh52" depart="497.87" from="E7" to="E8" departLane='best'/>
    <trip id="res_veh53" depart="507.45" from="E11" to="E14" departLane='best' departSpeed='max'/>
    <trip id="res_veh54" depart="517.02" from="E11" to="E8" departLane='best' departSpeed='max'/>
    <trip id="res_veh55" depart="526.60" from="E10" to="E10" departLane='best'/>
    <trip id="res_veh56" depart="536.17" from="E11" to="E1" departLane='best' departSpeed='max'/>
    <trip id="res_veh57" depart="545.74" from="E5" to="E13" departLane='best'/>
    <trip id="res_veh58" depart="555.32" from="E19" to="E22" departLane='best' departSpeed='max'/>
    <trip id="res_veh59" depart="564.89" from="E16" to="E22" departLane='best' departSpeed='max'/>
    <trip id="res_veh60" depart="574.47" from="E11" to="E17" departLane='best' departSpeed='max'/>
    <trip id="res_veh61" depart="584.04" from="E23" to="E14" departLane='best' departSpeed='max'/>
    <trip id="res_veh62" depart="593.62" from="E16" to="E10" departLane='best' departSpeed='max'/>
    <trip id="res_veh63" depart="603.19" from="E5" to="E14" departLane='best'/>
    <trip id="res_veh64" depart="612.77" from="E12" to="E22" departLane='best' departSpeed='max'/>
    <trip id="res_veh65" depart="622.34" from="E21" to="E14" departLane='best' departSpeed='max'/>
    <trip id="res_veh66" depart="631.91" from="E5" to="E1" departLane='best'/>
    <trip id="res_veh67" depart="641.49" from="E16" to="E14" departLane='best' departSpeed='max'/>
    <trip id="res_veh68" depart="651.06" from="E21" to="E14" departLane='best' departSpeed='max'/>
    <trip id="res_veh69" depart="660.64" from="E5" to="E20" departLane='best'/>
    <trip id="res_veh70" depart="670.21" from="E5" to="E22" departLane='best'/>
    <trip id="res_veh71" depart="679.79" from="E10" to="E10" departLane='best'/>
    <trip id="res_veh72" depart="689.36" from="E5" to="E13" departLane='best'/>
    <trip id="res_veh73" depart="698.94" from="E11" to="E1" departLane='best' departSpeed='max'/>
    <trip id="res_veh74" depart="708.51" from="E16" to="E22" departLane='best' departSpeed='max'/>
    <trip id="res_veh75" depart="718.09" from="E5" to="E8" departLane='best'/>
    <trip id="res_veh76" depart="727.66" from="E5" to="E6" departLane='best'/>
    <trip id="res_veh77" depart="737.23" from="E11" to="E6" departLane='best' departSpeed='max'/>
    <trip id="res_veh78" depart="746.81" from="E21" to="E17" departLane='best' departSpeed='max'/>
    <trip id="res_veh79" depart="756.38" from="E2" to="E20" departLane='best'/>
    <trip id="res_veh80" depart="765.96" from="E16" to="E22" departLane='best' departSpeed='max'/>
    <trip id="res_veh81" depart="775.53" from="E16" to="E1" departLane='best' departSpeed='max'/>
    <trip id="res_veh82" depart="785.11" from="E16" to="E14" departLane='best' departSpeed='max'/>
    <trip id="res_veh83" depart="794.68" from="E5" to="E22" departLane='best'/>
    <trip id="res_veh84" depart="804.26" from="E0" to="E14" departLane='best'/>
    <trip id="res_veh85" depart="813.83" from="E16" to="E22" departLane='best' departSpeed='max'/>
    <trip id="res_veh86" depart="823.40" from="E16" to="E13" departLane='best' departSpeed='max'/>
    <trip id="res_veh87" depart="832.98" from="E4" to="E10" departLane='best'/>
    <trip id="res_veh88" depart="842.55" from="E5" to="E5" departLane='best'/>
    <trip id="res_veh89" depart="852.13" from="E23" to="E13" departLane='best' departSpeed='max'/>
    <trip id="res_veh90" depart="861.70" from="E11" to="E2" departLane='best' departSpeed='max'/>
    <trip id="res_veh91" depart="871.28" from="E5" to="E1" departLane='best'/>
    <trip id="res_veh92" depart="880.85" from="E11" to="E8" departLane='best' departSpeed='max'/>
    <trip id="res_veh93" depart="890.43" from="E11" to="E6" departLane='best' departSpeed='max'/>
    <trip id="res_veh94" depart="900.00" from="E23" to="E8" departLane='best' departSpeed='max'/>
    <trip id="res_veh95" depart="909.57" from="E19" to="E8" departLane='best' departSpeed='max'/>
    <trip id="res_veh96" depart="919.15" from="E5" to="E22" departLane='best'/>
    <trip id="res_veh97" depart="928.72" from="E5" to="E20" departLane='best'/>
    <trip id="res_veh98" depart="938.30" from="E12" to="E15" departLane='best' departSpeed='max'/>
    <trip id="res_veh99" depart="947.87" from="E16" to="E20" departLane='best' departSpeed='max'/>
    <trip id="res_veh100" depart="957.45" from="E16" to="E13" departLane='best' departSpeed='max'/>
    <trip id="res_veh101" depart="967.02" from="E19" to="E4" departLane='best' departSpeed='max'/>
    <trip id="res_veh102" depart="976.60" from="E5" to="E5" departLane='best'/>
    <trip id="res_veh103" depart="986.17" from="E16" to="E5" departLane='best' departSpeed='max'/>
    <trip id="res_veh104" depart="995.74" from="E5" to="E8" departLane='best'/>
    <trip id="res_veh105" depart="1005.32" from="E11" to="E13" departLane='best' departSpeed='max'/>
    <trip id="res_veh106" depart="1014.89" from="E16" to="E10" departLane='best' departSpeed='max'/>
    <trip id="res_veh107" depart="1024.47" from="E16" to="E22" departLane='best' departSpeed='max'/>
    <trip id="res_veh108" depart="1034.04" from="E11" to="E15" departLane='best' departSpeed='max'/>
    <trip id="res_veh109" depart="1043.62" from="E4" to="E17" departLane='best'/>
    <trip id="res_veh110" depart="1053.19" from="E11" to="E1" departLane='best' departSpeed='max'/>
    <trip id="res_veh111" depart="1062.77" from="E9" to="E15" departLane='best' departSpeed='max'/>
    <trip id="res_veh112" depart="1072.34" from="E6" to="E13" departLane='best'/>
    <trip id="res_veh113" depart="1081.91" from="E11" to="E22" departLane='best' departSpeed='max'/>
    <trip id="res_veh114" depart="1091.49" from="E5" to="E8" departLane='best'/>
    <trip id="res_veh115" depart="1101.06" from="E7" to="E17" departLane='best'/>
    <trip id="res_veh116" depart="1110.64" from="E3" to="E3" departLane='best'/>
    <trip id="res_veh117" depart="1120.21" from="E5" to="E22" departLane='best'/>
    <trip id="res_veh118" depart="1129.79" from="E16" to="E15" departLane='best' departSpeed='max'/>
    <trip id="res_veh119" depart="1139.36" from="E5" to="E6" departLane='best'/>
    <trip id="res_veh120" depart="1148.94" from="E21" to="E6" departLane='best' departSpeed='max'/>
    <trip id="res_veh121" depart="1158.51" from="E4" to="E17" departLane='best'/>
    <trip id="res_veh122" depart="1168.09" from="E5" to="E1" departLane='best'/>
    <trip id="res_veh123" depart="1177.66" from="E5" to="E13" departLane='best'/>
    <trip id="res_veh124" depart="1187.23" from="E11" to="E5" departLane='best' departSpeed='max'/>
    <trip id="res_veh125" depart="1196.81" from="E3" to="E3" departLane='best'/>
    <trip id="res_veh126" depart="1206.38" from="E3" to="E14" departLane='best'/>
    <trip id="res_veh127" depart="1215.96" from="E18" to="E2" departLane='best' departSpeed='max'/>
    <trip id="res_veh128" depart="1225.53" from="E17" to="E17" departLane='best'/>
    <trip id="res_veh129" depart="1235.11" from="E11" to="E1" departLane='best' departSpeed='max'/>
    <trip id="res_veh130" depart="1244.68" from="E11" to="E1" departLane='best' departSpeed='max'/>
    <trip id="res_veh131" depart="1254.26" from="E11" to="E13" departLane='best' departSpeed='max'/>
    <trip id="res_veh132" depart="1263.83" from="E12" to="E1" departLane='best' departSpeed='max'/>
    <trip id="res_veh133" depart="1273.40" from="E11" to="E13" departLane='best' departSpeed='max'/>
    <trip id="res_veh134" depart="1282.98" from="E3" to="E10" departLane='best'/>
    <trip id="res_veh135" depart="1292.55" from="E5" to="E2" departLane='best'/>
    <trip id="res_veh136" depart="1302.13" from="E5" to="E22" departLane='best'/>
    <trip id="res_veh137" depart="1311.70" from="E10" to="E10" departLane='best'/>
    <trip id="res_veh138" depart="1321.28" from="E16" to="E6" departLane='best' departSpeed='max'/>
    <trip id="res_veh139" depart="1330.85" from="E9" to="E14" departLane='best' departSpeed='max'/>
    <trip id="res_veh140" depart="1340.43" from="E11" to="E13" departLane='best' departSpeed='max'/>
    <trip id="res_veh141" depart="1350.00" from="E11" to="E1" departLane='best' departSpeed='max'/>
    <trip id="res_veh142" depart="1359.57" from="E0" to="E2" departLane='best'/>
    <trip id="res_veh143" depart="1369.15" from="E19" to="E14" departLane='best' departSpeed='max'/>
    <trip id="res_veh144" depart="1378.72" from="E16" to="E20" departLane='best' departSpeed='max'/>
    <trip id="res_veh145" depart="1388.30" from="E5" to="E1" departLane='best'/>
    <trip id="res_veh146" depart="1397.87" from="E11" to="E14" departLane='best' departSpeed='max'/>
    <trip id="res_veh147" depart="1407.45" from="E3" to="E4" departLane='best'/>
    <trip id="res_veh148" depart="1417.02" from="E5" to="E22" departLane='best'/>
    <trip id="res_veh149" depart="1426.60" from="E7" to="E8" departLane='best'/>
    <trip id="res_veh150" depart="1436.17" from="E23" to="E14" departLane='best' departSpeed='max'/>
    <trip id="res_veh151" depart="1445.74" from="E16" to="E15" departLane='best' departSpeed='max'/>
    <trip id="res_veh152" depart="1455.32" from="E23" to="E6" departLane='best' departSpeed='max'/>
    <trip id="res_veh153" depart="1464.89" from="E17" to="E17" departLane='best'/>
    <trip id="res_veh154" depart="1474.47" from="E11" to="E15" departLane='best' departSpeed='max'/>
    <trip id="res_veh155" depart="1484.04" from="E11" to="E20" departLane='best' departSpeed='max'/>
    <trip id="res_veh156" depart="1493.62" from="E5" to="E2" departLane='best'/>
    <trip id="res_veh157" depart="1503.19" from="E17" to="E17" departLane='best'/>
    <trip id="res_veh158" depart="1512.77" from="E5" to="E20" departLane='best'/>
    <trip id="res_veh159" depart="1522.34" from="E5" to="E6" departLane='best'/>
    <trip id="res_veh160" depart="1531.91" from="E12" to="E14" departLane='best' departSpeed='max'/>
    <trip id="res_veh161" depart="1541.49" from="E19" to="E8" departLane='best' departSpeed='max'/>
    <trip id="res_veh162" depart="1551.06" from="E18" to="E13" departLane='best' departSpeed='max'/>
    <trip id="res_veh163" depart="1560.64" from="E4" to="E4" departLane='best'/>
    <trip id="res_veh164" depart="1570.21" from="E4" to="E17" departLane='best'/>
    <trip id="res_veh165" depart="1579.79" from="E5" to="E2" departLane='best'/>
    <trip id="res_veh166" depart="1589.36" from="E4" to="E17" departLane='best'/>
    <trip id="res_veh167" depart="1598.94" from="E21" to="E6" departLane='best' departSpeed='max'/>
    <trip id="res_veh168" depart="1608.51" from="E5" to="E6" departLane='best'/>
    <trip id="res_veh169" depart="1618.09" from="E16" to="E15" departLane='best' departSpeed='max'/>
    <trip id="res_veh170" depart="1627.66" from="E5" to="E8" departLane='best'/>
    <trip id="res_veh171" depart="1637.23" from="E4" to="E17" departLane='best'/>
    <trip id="res_veh172" depart="1646.81" from="E5" to="E2" departLane='best'/>
    <trip id="res_veh173" depart="1656.38" from="E11" to="E1" departLane='best' departSpeed='max'/>
    <trip id="res_veh174" depart="1665.96" from="E5" to="E22" departLane='best'/>
    <trip id="res_veh175" depart="1675.53" from="E11" to="E14" departLane='best' departSpeed='max'/>
    <trip id="res_veh176" depart="1685.11" from="E11" to="E2" departLane='best' departSpeed='max'/>
    <trip id="res_veh177" depart="1694.68" from="E16" to="E22" departLane='best' departSpeed='max'/>
    <trip id="res_veh178" depart="1704.26" from="E21" to="E17" departLane='best' departSpeed='max'/>
    <trip id="res_veh179" depart="1713.83" from="E11" to="E6" departLane='best' departSpeed='max'/>
    <trip id="res_veh180" depart="1723.40" from="E11" to="E17" departLane='best' departSpeed='max'/>
    <trip id="res_veh181" depart="1732.98" from="E18" to="E22" departLane='best' departSpeed='max'/>
    <trip id="res_veh182" depart="1742.55" from="E9" to="E14" departLane='best' departSpeed='max'/>
    <trip id="res_veh183" depart="1752.13" from="E12" to="E22" departLane='best' departSpeed='max'/>
    <trip id="res_veh184" depart="1761.70" from="E3" to="E4" departLane='best'/>
    <trip id="res_veh185" depart="1771.28" from="E21" to="E22" departLane='best' departSpeed='max'/>
    <trip id="res_veh186" depart="1780.85" from="E23" to="E4" departLane='best' departSpeed='max'/>
    <trip id="res_veh187" depart="1790.43" from="E21" to="E14" departLane='best' departSpeed='max'/>
    <trip id="res_veh188" depart="1800.00" from="E16" to="E22" departLane='best' departSpeed='max'/>
    <trip id="res_veh189" depart="1809.57" from="E5" to="E14" departLane='best'/>
    <trip id="res_veh190" depart="1819.15" from="E5" to="E2" departLane='best'/>
    <trip id="res_veh191" depart="1828.72" from="E4" to="E4" departLane='best'/>
    <trip id="res_veh192" depart="1838.30" from="E16" to="E1" departLane='best' departSpeed='max'/>
    <trip id="res_veh193" depart="1847.87" from="E7" to="E10" departLane='best'/>
    <trip id="res_veh194" depart="1857.45" from="E16" to="E5" departLane='best' departSpeed='max'/>
    <trip id="res_veh195" depart="1867.02" from="E0" to="E20" departLane='best'/>
    <trip id="res_veh196" depart="1876.60" from="E23" to="E22" departLane='best' departSpeed='max'/>
    <trip id="res_veh197" depart="1886.17" from="E5" to="E8" departLane='best'/>
    <trip id="res_veh198" depart="1895.74" from="E11" to="E1" departLane='best' departSpeed='max'/>
    <trip id="res_veh199" depart="1905.32" from="E23" to="E4" departLane='best' departSpeed='max'/>
    <trip id="res_veh200" depart="1914.89" from="E4" to="E10" departLane='best'/>
    <trip id="res_veh201" depart="1924.47" from="E16" to="E1" departLane='best' departSpeed='max'/>
    <trip id="res_veh202" depart="1934.04" from="E17" to="E17" departLane='best'/>
    <trip id="res_veh203" depart="1943.62" from="E16" to="E2" departLane='best' departSpeed='max'/>
    <trip id="res_veh204" depart="1953.19" from="E16" to="E17" departLane='best' departSpeed='max'/>
    <trip id="res_veh205" depart="1962.77" from="E11" to="E1" departLane='best' departSpeed='max'/>
    <trip id="res_veh206" depart="1972.34" from="E5" to="E2" departLane='best'/>
    <trip id="res_veh207" depart="1981.91" from="E11" to="E13" departLane='best' departSpeed='max'/>
    <trip id="res_veh208" depart="1991.49" from="E5" to="E15" departLane='best'/>
    <trip id="res_veh209" depart="2001.06" from="E0" to="E6" departLane='best'/>
    <trip id="res_veh210" depart="2010.64" from="E10" to="E10" departLane='best'/>
    <trip id="res_veh211" depart="2020.21" from="E11" to="E15" departLane='best' departSpeed='max'/>
    <trip id="res_veh212" depart="2029.79" from="E17" to="E17" departLane='best'/>
    <trip id="res_veh213" depart="2039.36" from="E5" to="E1" departLane='best'/>
    <trip id="res_veh214" depart="2048.94" from="E20" to="E20" departLane='best'/>
    <trip id="res_veh215" depart="2058.51" from="E16" to="E2" departLane='best' departSpeed='max'/>
    <trip id="res_veh216" depart="2068.09" from="E16" to="E1" departLane='best' departSpeed='max'/>
    <trip id="res_veh217" depart="2077.66" from="E16" to="E10" departLane='best' departSpeed='max'/>
    <trip id="res_veh218" depart="2087.23" from="E5" to="E1" departLane='best'/>
    <trip id="res_veh219" depart="2096.81" from="E5" to="E1" departLane='best'/>
    <trip id="res_veh220" depart="2106.38" from="E19" to="E20" departLane='best' departSpeed='max'/>
    <trip id="res_veh221" depart="2115.96" from="E18" to="E13" departLane='best' departSpeed='max'/>
    <trip id="res_veh222" depart="2125.53" from="E16" to="E5" departLane='best' departSpeed='max'/>
    <trip id="res_veh223" depart="2135.11" from="E5" to="E8" departLane='best'/>
    <trip id="res_veh224" depart="2144.68" from="E5" to="E22" departLane='best'/>
    <trip id="res_veh225" depart="2154.26" from="E5" to="E6" departLane='best'/>
    <trip id="res_veh226" depart="2163.83" from="E12" to="E10" departLane='best' departSpeed='max'/>
    <trip id="res_veh227" depart="2173.40" from="E5" to="E22" departLane='best'/>
    <trip id="res_veh228" depart="2182.98" from="E16" to="E10" departLane='best' departSpeed='max'/>
    <trip id="res_veh229" depart="2192.55" from="E16" to="E15" departLane='best' departSpeed='max'/>
    <trip id="res_veh230" depart="2202.13" from="E11" to="E22" departLane='best' departSpeed='max'/>
    <trip id="res_veh231" depart="2211.70" from="E23" to="E14" departLane='best' departSpeed='max'/>
    <trip id="res_veh232" depart="2221.28" from="E16" to="E14" departLane='best' departSpeed='max'/>
    <trip id="res_veh233" depart="2230.85" from="E16" to="E14" departLane='best' departSpeed='max'/>
    <trip id="res_veh234" depart="2240.43" from="E16" to="E22" departLane='best' departSpeed='max'/>
    <trip id="res_veh235" depart="2250.00" from="E0" to="E14" departLane='best'/>
    <trip id="res_veh236" depart="2259.57" from="E11" to="E15" departLane='best' departSpeed='max'/>
    <trip id="res_veh237" depart="2269.15" from="E0" to="E4" departLane='best'/>
    <trip id="res_veh238" depart="2278.72" from="E11" to="E17" departLane='best' departSpeed='max'/>
    <trip id="res_veh239" depart="2288.30" from="E5" to="E5" departLane='best'/>
    <trip id="res_veh240" depart="2297.87" from="E5" to="E6" departLane='best'/>
    <trip id="res_veh241" depart="2307.45" from="E18" to="E22" departLane='best' departSpeed='max'/>
    <trip id="res_veh242" depart="2317.02" from="E4" to="E17" departLane='best'/>
    <trip id="res_veh243" depart="2326.60" from="E5" to="E1" departLane='best'/>
    <trip id="res_veh244" depart="2336.17" from="E5" to="E13" departLane='best'/>
    <trip id="res_veh245" depart="2345.74" from="E19" to="E20" departLane='best' departSpeed='max'/>
    <trip id="res_veh246" depart="2355.32" from="E16" to="E14" departLane='best' departSpeed='max'/>
    <trip id="res_veh247" depart="2364.89" from="E16" to="E15" departLane='best' departSpeed='max'/>
    <trip id="res_veh248" depart="2374.47" from="E11" to="E20" departLane='best' departSpeed='max'/>
    <trip id="res_veh249" depart="2384.04" from="E5" to="E15" departLane='best'/>
    <trip id="res_veh250" depart="2393.62" from="E14" to="E14" departLane='best'/>
    <trip id="res_veh251" depart="2403.19" from="E5" to="E22" departLane='best'/>
    <trip id="res_veh252" depart="2412.77" from="E5" to="E2" departLane='best'/>
    <trip id="res_veh253" depart="2422.34" from="E11" to="E2" departLane='best' departSpeed='max'/>
    <trip id="res_veh254" depart="2431.91" from="E16" to="E20" departLane='best' departSpeed='max'/>
    <trip id="res_veh255" depart="2441.49" from="E11" to="E15" departLane='best' departSpeed='max'/>
    <trip id="res_veh256" depart="2451.06" from="E12" to="E17" departLane='best' departSpeed='max'/>
    <trip id="res_veh257" depart="2460.64" from="E16" to="E22" departLane='best' departSpeed='max'/>
    <trip id="res_veh258" depart="2470.21" from="E23" to="E14" departLane='best' departSpeed='max'/>
    <trip id="res_veh259" depart="2479.79" from="E5" to="E6" departLane='best'/>
    <trip id="res_veh260" depart="2489.36" from="E16" to="E22" departLane='best' departSpeed='max'/>
    <trip id="res_veh261" depart="2498.94" from="E16" to="E22" departLane='best' departSpeed='max'/>
    <trip id="res_veh262" depart="2508.51" from="E6" to="E14" departLane='best'/>
    <trip id="res_veh263" depart="2518.09" from="E16" to="E5" departLane='best' departSpeed='max'/>
    <trip id="res_veh264" depart="2527.66" from="E21" to="E17" departLane='best' departSpeed='max'/>
    <trip id="res_veh265" depart="2537.23" from="E16" to="E15" departLane='best' departSpeed='max'/>
    <trip id="res_veh266" depart="2546.81" from="E11" to="E13" departLane='best' departSpeed='max'/>
    <trip id="res_veh267" depart="2556.38" from="E4" to="E10" departLane='best'/>
    <trip id="res_veh268" depart="2565.96" from="E16" to="E10" departLane='best' departSpeed='max'/>
    <trip id="res_veh269" depart="2575.53" from="E5" to="E5" departLane='best'/>
    <trip id="res_veh270" depart="2585.11" from="E4" to="E10" departLane='best'/>
    <trip id="res_veh271" depart="2594.68" from="E16" to="E17" departLane='best' departSpeed='max'/>
    <trip id="res_veh272" depart="2604.26" from="E23" to="E13" departLane='best' departSpeed='max'/>
    <trip id="res_veh273" depart="2613.83" from="E16" to="E14" departLane='best' departSpeed='max'/>
    <trip id="res_veh274" depart="2623.40" from="E5" to="E15" departLane='best'/>
    <trip id="res_veh275" depart="2632.98" from="E16" to="E20" departLane='best' departSpeed='max'/>
    <trip id="res_veh276" depart="2642.55" from="E4" to="E10" departLane='best'/>
    <trip id="res_veh277" depart="2652.13" from="E5" to="E20" departLane='best'/>
    <trip id="res_veh278" depart="2661.70" from="E5" to="E14" departLane='best'/>
    <trip id="res_veh279" depart="2671.28" from="E16" to="E8" departLane='best' departSpeed='max'/>
    <trip id="res_veh280" depart="2680.85" from="E11" to="E2" departLane='best' departSpeed='max'/>
    <trip id="res_veh281" depart="2690.43" from="E11" to="E8" departLane='best' departSpeed='max'/>
    <trip id="res_veh282" depart="2700.00" from="E5" to="E6" departLane='best'/>
    <trip id="res_veh283" depart="2709.57" from="E5" to="E20" departLane='best'/>
    <trip id="res_veh284" depart="2719.15" from="E16" to="E5" departLane='best' departSpeed='max'/>
    <trip id="res_veh285" depart="2728.72" from="E5" to="E22" departLane='best'/>
    <trip id="res_veh286" depart="2738.30" from="E0" to="E20" departLane='best'/>
    <trip id="res_veh287" depart="2747.87" from="E16" to="E22" departLane='best' departSpeed='max'/>
    <trip id="res_veh288" depart="2757.45" from="E11" to="E17" departLane='best' departSpeed='max'/>
    <trip id="res_veh289" depart="2767.02" from="E9" to="E20" departLane='best' departSpeed='max'/>
    <trip id="res_veh290" depart="2776.60" from="E16" to="E2" departLane='best' departSpeed='max'/>
    <trip id="res_veh291" depart="2786.17" from="E21" to="E8" departLane='best' departSpeed='max'/>
    <trip id="res_veh292" depart="2795.74" from="E4" to="E4" departLane='best'/>
    <trip id="res_veh293" depart="2805.32" from="E11" to="E5" departLane='best' departSpeed='max'/>
    <trip id="res_veh294" depart="2814.89" from="E16" to="E5" departLane='best' departSpeed='max'/>
    <trip id="res_veh295" depart="2824.47" from="E5" to="E15" departLane='best'/>
    <trip id="res_veh296" depart="2834.04" from="E5" to="E15" departLane='best'/>
    <trip id="res_veh297" depart="2843.62" from="E9" to="E14" departLane='best' departSpeed='max'/>
    <trip id="res_veh298" depart="2853.19" from="E8" to="E8" departLane='best'/>
    <trip id="res_veh299" depart="2862.77" from="E16" to="E5" departLane='best' departSpeed='max'/>
    <trip id="res_veh300" depart="2872.34" from="E23" to="E8" departLane='best' departSpeed='max'/>
    <trip id="res_veh301" depart="2881.91" from="E16" to="E17" departLane='best' departSpeed='max'/>
    <trip id="res_veh302" depart="2891.49" from="E18" to="E22" departLane='best' departSpeed='max'/>
    <trip id="res_veh303" depart="2901.06" from="E23" to="E8" departLane='best' departSpeed='max'/>
    <trip id="res_veh304" depart="2910.64" from="E16" to="E5" departLane='best' departSpeed='max'/>
    <trip id="res_veh305" depart="2920.21" from="E18" to="E20" departLane='best' departSpeed='max'/>
    <trip id="res_veh306" depart="2929.79" from="E11" to="E1" departLane='best' departSpeed='max'/>
    <trip id="res_veh307" depart="2939.36" from="E16" to="E20" departLane='best' departSpeed='max'/>
    <trip id="res_veh308" depart="2948.94" from="E11" to="E14" departLane='best' departSpeed='max'/>
    <trip id="res_veh309" depart="2958.51" from="E16" to="E8" departLane='best' departSpeed='max'/>
    <trip id="res_veh310" depart="2968.09" from="E5" to="E2" departLane='best'/>
    <trip id="res_veh311" depart="2977.66" from="E5" to="E2" departLane='best'/>
    <trip id="res_veh312" depart="2987.23" from="E5" to="E15" departLane='best'/>
    <trip id="res_veh313" depart="2996.81" from="E16" to="E1" departLane='best' departSpeed='max'/>
    <trip id="res_veh314" depart="3006.38" from="E16" to="E5" departLane='best' departSpeed='max'/>
    <trip id="res_veh315" depart="3015.96" from="E9" to="E4" departLane='best' departSpeed='max'/>
    <trip id="res_veh316" depart="3025.53" from="E5" to="E1" departLane='best'/>
    <trip id="res_veh317" depart="3035.11" from="E11" to="E8" departLane='best' departSpeed='max'/>