<?xml version="1.0" encoding="UTF-8"?>

<!-- generated on 2025-07-24 12:08:51.553790 by randomTrips.py v1_23_1+0000-676720d13f6
<configuration>
    <net-file value="osm.net.xml.gz"/>
    <weights-prefix value="random_edge_priority"/>
    <output-trip-file value="osm.res_veh.trips.xml"/>
    <prefix value="res_veh"/>
    <trip-attributes value="departLane='best'"/>
    <fringe-start-attributes value="departSpeed='max'"/>
    <vehicle-class value="passenger"/>
    <edge-permission value="passenger"/>
    <remove-loops value="True"/>
    <validate value="True"/>
    <insertion-rate value="1500.0"/>
</configuration>
-->

<routes xmlns:xsi="http://www.w3.org/2001/XMLSchema-instance" xsi:noNamespaceSchemaLocation="http://sumo.dlr.de/xsd/routes_file.xsd">
    <vType id="res_veh_passenger" vClass="passenger"/>
    <trip id="res_veh0" depart="0.00" from="E21" to="E14" departLane='best' type="res_veh_passenger" departSpeed='max'/>
    <trip id="res_veh1" depart="2.40" from="E21" to="E30" departLane='best' type="res_veh_passenger" departSpeed='max'/>
    <trip id="res_veh2" depart="4.80" from="E21" to="E1" departLane='best' type="res_veh_passenger" departSpeed='max'/>
    <trip id="res_veh3" depart="7.20" from="E21" to="E25" departLane='best' type="res_veh_passenger" departSpeed='max'/>
    <trip id="res_veh4" depart="9.60" from="E21" to="E13" departLane='best' type="res_veh_passenger" departSpeed='max'/>
    <trip id="res_veh5" depart="12.00" from="E21" to="E25" departLane='best' type="res_veh_passenger" departSpeed='max'/>
    <trip id="res_veh6" depart="14.40" from="E21" to="E28" departLane='best' type="res_veh_passenger" departSpeed='max'/>
    <trip id="res_veh7" depart="16.80" from="E21" to="E30" departLane='best' type="res_veh_passenger" departSpeed='max'/>
    <trip id="res_veh8" depart="19.20" from="E21" to="E13" departLane='best' type="res_veh_passenger" departSpeed='max'/>
    <trip id="res_veh9" depart="21.60" from="E21" to="E17" departLane='best' type="res_veh_passenger" departSpeed='max'/>
    <trip id="res_veh10" depart="24.00" from="E21" to="E1" departLane='best' type="res_veh_passenger" departSpeed='max'/>
    <trip id="res_veh11" depart="26.40" from="E21" to="E3" departLane='best' type="res_veh_passenger" departSpeed='max'/>
    <trip id="res_veh12" depart="28.80" from="E21" to="E32" departLane='best' type="res_veh_passenger" departSpeed='max'/>
    <trip id="res_veh13" depart="31.20" from="E21" to="E8" departLane='best' type="res_veh_passenger" departSpeed='max'/>
    <trip id="res_veh14" depart="33.60" from="E21" to="E28" departLane='best' type="res_veh_passenger" departSpeed='max'/>
    <trip id="res_veh15" depart="36.00" from="E21" to="E3" departLane='best' type="res_veh_passenger" departSpeed='max'/>
    <trip id="res_veh16" depart="38.40" from="E21" to="E28" departLane='best' type="res_veh_passenger" departSpeed='max'/>
    <trip id="res_veh17" depart="40.80" from="E21" to="E15" departLane='best' type="res_veh_passenger" departSpeed='max'/>
    <trip id="res_veh18" depart="43.20" from="E21" to="E14" departLane='best' type="res_veh_passenger" departSpeed='max'/>
    <trip id="res_veh19" depart="45.60" from="E21" to="E15" departLane='best' type="res_veh_passenger" departSpeed='max'/>
    <trip id="res_veh20" depart="48.00" from="E21" to="E14" departLane='best' type="res_veh_passenger" departSpeed='max'/>
    <trip id="res_veh21" depart="50.40" from="E21" to="E3" departLane='best' type="res_veh_passenger" departSpeed='max'/>
    <trip id="res_veh22" depart="52.80" from="E21" to="E32" departLane='best' type="res_veh_passenger" departSpeed='max'/>
    <trip id="res_veh23" depart="55.20" from="E21" to="E3" departLane='best' type="res_veh_passenger" departSpeed='max'/>
    <trip id="res_veh24" depart="57.60" from="E21" to="E30" departLane='best' type="res_veh_passenger" departSpeed='max'/>
    <trip id="res_veh25" depart="60.00" from="E21" to="E4" departLane='best' type="res_veh_passenger" departSpeed='max'/>
    <trip id="res_veh26" depart="62.40" from="E21" to="E15" departLane='best' type="res_veh_passenger" departSpeed='max'/>
    <trip id="res_veh27" depart="64.80" from="E21" to="E17" departLane='best' type="res_veh_passenger" departSpeed='max'/>
    <trip id="res_veh28" depart="67.20" from="E21" to="E22" departLane='best' type="res_veh_passenger" departSpeed='max'/>
    <trip id="res_veh29" depart="69.60" from="E21" to="E14" departLane='best' type="res_veh_passenger" departSpeed='max'/>
    <trip id="res_veh30" depart="72.00" from="E21" to="E15" departLane='best' type="res_veh_passenger" departSpeed='max'/>
    <trip id="res_veh31" depart="74.40" from="E21" to="E6" departLane='best' type="res_veh_passenger" departSpeed='max'/>
    <trip id="res_veh32" depart="76.80" from="E21" to="E14" departLane='best' type="res_veh_passenger" departSpeed='max'/>
    <trip id="res_veh33" depart="79.20" from="E21" to="E25" departLane='best' type="res_veh_passenger" departSpeed='max'/>
    <trip id="res_veh34" depart="81.60" from="E21" to="E3" departLane='best' type="res_veh_passenger" departSpeed='max'/>
    <trip id="res_veh35" depart="84.00" from="E21" to="E25" departLane='best' type="res_veh_passenger" departSpeed='max'/>
    <trip id="res_veh36" depart="86.40" from="E21" to="E6" departLane='best' type="res_veh_passenger" departSpeed='max'/>
    <trip id="res_veh37" depart="88.80" from="E21" to="E32" departLane='best' type="res_veh_passenger" departSpeed='max'/>
    <trip id="res_veh38" depart="91.20" from="E21" to="E25" departLane='best' type="res_veh_passenger" departSpeed='max'/>
    <trip id="res_veh39" depart="93.60" from="E21" to="E3" departLane='best' type="res_veh_passenger" departSpeed='max'/>
    <trip id="res_veh40" depart="96.00" from="E21" to="E8" departLane='best' type="res_veh_passenger" departSpeed='max'/>
    <trip id="res_veh41" depart="98.40" from="E21" to="E15" departLane='best' type="res_veh_passenger" departSpeed='max'/>
    <trip id="res_veh42" depart="100.80" from="E21" to="E13" departLane='best' type="res_veh_passenger" departSpeed='max'/>
    <trip id="res_veh43" depart="103.20" from="E21" to="E6" departLane='best' type="res_veh_passenger" departSpeed='max'/>
    <trip id="res_veh44" depart="105.60" from="E21" to="E3" departLane='best' type="res_veh_passenger" departSpeed='max'/>
    <trip id="res_veh45" depart="108.00" from="E21" to="E13" departLane='best' type="res_veh_passenger" departSpeed='max'/>
    <trip id="res_veh46" depart="110.40" from="E21" to="E25" departLane='best' type="res_veh_passenger" departSpeed='max'/>
    <trip id="res_veh47" depart="112.80" from="E21" to="E25" departLane='best' type="res_veh_passenger" departSpeed='max'/>
    <trip id="res_veh48" depart="115.20" from="E21" to="E17" departLane='best' type="res_veh_passenger" departSpeed='max'/>
    <trip id="res_veh49" depart="117.60" from="E21" to="E1" departLane='best' type="res_veh_passenger" departSpeed='max'/>
    <trip id="res_veh50" depart="120.00" from="E21" to="E22" departLane='best' type="res_veh_passenger" departSpeed='max'/>
    <trip id="res_veh51" depart="122.40" from="E21" to="E4" departLane='best' type="res_veh_passenger" departSpeed='max'/>
    <trip id="res_veh52" depart="124.80" from="E21" to="E10" departLane='best' type="res_veh_passenger" departSpeed='max'/>
    <trip id="res_veh53" depart="127.20" from="E21" to="E25" departLane='best' type="res_veh_passenger" departSpeed='max'/>
    <trip id="res_veh54" depart="129.60" from="E21" to="E6" departLane='best' type="res_veh_passenger" departSpeed='max'/>
    <trip id="res_veh55" depart="132.00" from="E21" to="E14" departLane='best' type="res_veh_passenger" departSpeed='max'/>
    <trip id="res_veh56" depart="134.40" from="E21" to="E32" departLane='best' type="res_veh_passenger" departSpeed='max'/>
    <trip id="res_veh57" depart="136.80" from="E21" to="E17" departLane='best' type="res_veh_passenger" departSpeed='max'/>
    <trip id="res_veh58" depart="139.20" from="E21" to="E3" departLane='best' type="res_veh_passenger" departSpeed='max'/>
    <trip id="res_veh59" depart="141.60" from="E21" to="E25" departLane='best' type="res_veh_passenger" departSpeed='max'/>
    <trip id="res_veh60" depart="144.00" from="E21" to="E14" departLane='best' type="res_veh_passenger" departSpeed='max'/>
    <trip id="res_veh61" depart="146.40" from="E21" to="E28" departLane='best' type="res_veh_passenger" departSpeed='max'/>
    <trip id="res_veh62" depart="148.80" from="E21" to="E14" departLane='best' type="res_veh_passenger" departSpeed='max'/>
    <trip id="res_veh63" depart="151.20" from="E21" to="E3" departLane='best' type="res_veh_passenger" departSpeed='max'/>
    <trip id="res_veh64" depart="153.60" from="E21" to="E1" departLane='best' type="res_veh_passenger" departSpeed='max'/>
    <trip id="res_veh65" depart="156.00" from="E21" to="E30" departLane='best' type="res_veh_passenger" departSpeed='max'/>
    <trip id="res_veh66" depart="158.40" from="E21" to="E10" departLane='best' type="res_veh_passenger" departSpeed='max'/>
    <trip id="res_veh67" depart="160.80" from="E21" to="E28" departLane='best' type="res_veh_passenger" departSpeed='max'/>
    <trip id="res_veh68" depart="163.20" from="E21" to="E4" departLane='best' type="res_veh_passenger" departSpeed='max'/>
    <trip id="res_veh69" depart="165.60" from="E21" to="E13" departLane='best' type="res_veh_passenger" departSpeed='max'/>
    <trip id="res_veh70" depart="168.00" from="E21" to="E22" departLane='best' type="res_veh_passenger" departSpeed='max'/>
    <trip id="res_veh71" depart="170.40" from="E21" to="E30" departLane='best' type="res_veh_passenger" departSpeed='max'/>
    <trip id="res_veh72" depart="172.80" from="E21" to="E1" departLane='best' type="res_veh_passenger" departSpeed='max'/>
    <trip id="res_veh73" depart="175.20" from="E21" to="E17" departLane='best' type="res_veh_passenger" departSpeed='max'/>
    <trip id="res_veh74" depart="177.60" from="E21" to="E14" departLane='best' type="res_veh_passenger" departSpeed='max'/>
    <trip id="res_veh75" depart="180.00" from="E21" to="E15" departLane='best' type="res_veh_passenger" departSpeed='max'/>
    <trip id="res_veh76" depart="182.40" from="E21" to="E6" departLane='best' type="res_veh_passenger" departSpeed='max'/>
    <trip id="res_veh77" depart="184.80" from="E21" to="E1" departLane='best' type="res_veh_passenger" departSpeed='max'/>
    <trip id="res_veh78" depart="187.20" from="E21" to="E13" departLane='best' type="res_veh_passenger" departSpeed='max'/>
    <trip id="res_veh79" depart="189.60" from="E21" to="E14" departLane='best' type="res_veh_passenger" departSpeed='max'/>
    <trip id="res_veh80" depart="192.00" from="E21" to="E1" departLane='best' type="res_veh_passenger" departSpeed='max'/>
    <trip id="res_veh81" depart="194.40" from="E21" to="E8" departLane='best' type="res_veh_passenger" departSpeed='max'/>
    <trip id="res_veh82" depart="196.80" from="E21" to="E4" departLane='best' type="res_veh_passenger" departSpeed='max'/>
    <trip id="res_veh83" depart="199.20" from="E21" to="E8" departLane='best' type="res_veh_passenger" departSpeed='max'/>
    <trip id="res_veh84" depart="201.60" from="E21" to="E32" departLane='best' type="res_veh_passenger" departSpeed='max'/>
    <trip id="res_veh85" depart="204.00" from="E21" to="E15" departLane='best' type="res_veh_passenger" departSpeed='max'/>
    <trip id="res_veh86" depart="206.40" from="E21" to="E28" departLane='best' type="res_veh_passenger" departSpeed='max'/>
    <trip id="res_veh87" depart="208.80" from="E21" to="E32" departLane='best' type="res_veh_passenger" departSpeed='max'/>
    <trip id="res_veh88" depart="211.20" from="E21" to="E28" departLane='best' type="res_veh_passenger" departSpeed='max'/>
    <trip id="res_veh89" depart="213.60" from="E21" to="E6" departLane='best' type="res_veh_passenger" departSpeed='max'/>
    <trip id="res_veh90" depart="216.00" from="E21" to="E8" departLane='best' type="res_veh_passenger" departSpeed='max'/>
    <trip id="res_veh91" depart="218.40" from="E21" to="E13" departLane='best' type="res_veh_passenger" departSpeed='max'/>
    <trip id="res_veh92" depart="220.80" from="E21" to="E30" departLane='best' type="res_veh_passenger" departSpeed='max'/>
    <trip id="res_veh93" depart="223.20" from="E21" to="E10" departLane='best' type="res_veh_passenger" departSpeed='max'/>
    <trip id="res_veh94" depart="225.60" from="E21" to="E14" departLane='best' type="res_veh_passenger" departSpeed='max'/>
    <trip id="res_veh95" depart="228.00" from="E21" to="E3" departLane='best' type="res_veh_passenger" departSpeed='max'/>
    <trip id="res_veh96" depart="230.40" from="E21" to="E28" departLane='best' type="res_veh_passenger" departSpeed='max'/>
    <trip id="res_veh97" depart="232.80" from="E21" to="E32" departLane='best' type="res_veh_passenger" departSpeed='max'/>
    <trip id="res_veh98" depart="235.20" from="E21" to="E15" departLane='best' type="res_veh_passenger" departSpeed='max'/>
    <trip id="res_veh99" depart="237.60" from="E21" to="E4" departLane='best' type="res_veh_passenger" departSpeed='max'/>
    <trip id="res_veh100" depart="240.00" from="E21" to="E22" departLane='best' type="res_veh_passenger" departSpeed='max'/>
    <trip id="res_veh101" depart="242.40" from="E21" to="E8" departLane='best' type="res_veh_passenger" departSpeed='max'/>
    <trip id="res_veh102" depart="244.80" from="E21" to="E14" departLane='best' type="res_veh_passenger" departSpeed='max'/>
    <trip id="res_veh103" depart="247.20" from="E21" to="E6" departLane='best' type="res_veh_passenger" departSpeed='max'/>
    <trip id="res_veh104" depart="249.60" from="E21" to="E13" departLane='best' type="res_veh_passenger" departSpeed='max'/>
    <trip id="res_veh105" depart="252.00" from="E21" to="E32" departLane='best' type="res_veh_passenger" departSpeed='max'/>
    <trip id="res_veh106" depart="254.40" from="E21" to="E8" departLane='best' type="res_veh_passenger" departSpeed='max'/>
    <trip id="res_veh107" depart="256.80" from="E21" to="E15" departLane='best' type="res_veh_passenger" departSpeed='max'/>
    <trip id="res_veh108" depart="259.20" from="E21" to="E10" departLane='best' type="res_veh_passenger" departSpeed='max'/>
    <trip id="res_veh109" depart="261.60" from="E21" to="E28" departLane='best' type="res_veh_passenger" departSpeed='max'/>
    <trip id="res_veh110" depart="264.00" from="E21" to="E3" departLane='best' type="res_veh_passenger" departSpeed='max'/>
    <trip id="res_veh111" depart="266.40" from="E21" to="E14" departLane='best' type="res_veh_passenger" departSpeed='max'/>
    <trip id="res_veh112" depart="268.80" from="E21" to="E15" departLane='best' type="res_veh_passenger" departSpeed='max'/>
    <trip id="res_veh113" depart="271.20" from="E21" to="E1" departLane='best' type="res_veh_passenger" departSpeed='max'/>
    <trip id="res_veh114" depart="273.60" from="E21" to="E15" departLane='best' type="res_veh_passenger" departSpeed='max'/>
    <trip id="res_veh115" depart="276.00" from="E21" to="E4" departLane='best' type="res_veh_passenger" departSpeed='max'/>
    <trip id="res_veh116" depart="278.40" from="E21" to="E15" departLane='best' type="res_veh_passenger" departSpeed='max'/>
    <trip id="res_veh117" depart="280.80" from="E21" to="E28" departLane='best' type="res_veh_passenger" departSpeed='max'/>
    <trip id="res_veh118" depart="283.20" from="E21" to="E6" departLane='best' type="res_veh_passenger" departSpeed='max'/>
    <trip id="res_veh119" depart="285.60" from="E21" to="E25" departLane='best' type="res_veh_passenger" departSpeed='max'/>
    <trip id="res_veh120" depart="288.00" from="E21" to="E28" departLane='best' type="res_veh_passenger" departSpeed='max'/>
    <trip id="res_veh121" depart="290.40" from="E21" to="E10" departLane='best' type="res_veh_passenger" departSpeed='max'/>
    <trip id="res_veh122" depart="292.80" from="E21" to="E6" departLane='best' type="res_veh_passenger" departSpeed='max'/>
    <trip id="res_veh123" depart="295.20" from="E21" to="E6" departLane='best' type="res_veh_passenger" departSpeed='max'/>
    <trip id="res_veh124" depart="297.60" from="E21" to="E14" departLane='best' type="res_veh_passenger" departSpeed='max'/>
    <trip id="res_veh125" depart="300.00" from="E21" to="E10" departLane='best' type="res_veh_passenger" departSpeed='max'/>
    <trip id="res_veh126" depart="302.40" from="E21" to="E6" departLane='best' type="res_veh_passenger" departSpeed='max'/>
    <trip id="res_veh127" depart="304.80" from="E21" to="E3" departLane='best' type="res_veh_passenger" departSpeed='max'/>
    <trip id="res_veh128" depart="307.20" from="E21" to="E8" departLane='best' type="res_veh_passenger" departSpeed='max'/>
    <trip id="res_veh129" depart="309.60" from="E21" to="E6" departLane='best' type="res_veh_passenger" departSpeed='max'/>
    <trip id="res_veh130" depart="312.00" from="E21" to="E32" departLane='best' type="res_veh_passenger" departSpeed='max'/>
    <trip id="res_veh131" depart="314.40" from="E21" to="E6" departLane='best' type="res_veh_passenger" departSpeed='max'/>
    <trip id="res_veh132" depart="316.80" from="E21" to="E15" departLane='best' type="res_veh_passenger" departSpeed='max'/>
    <trip id="res_veh133" depart="319.20" from="E21" to="E10" departLane='best' type="res_veh_passenger" departSpeed='max'/>
    <trip id="res_veh134" depart="321.60" from="E21" to="E6" departLane='best' type="res_veh_passenger" departSpeed='max'/>
    <trip id="res_veh135" depart="324.00" from="E21" to="E17" departLane='best' type="res_veh_passenger" departSpeed='max'/>
    <trip id="res_veh136" depart="326.40" from="E21" to="E14" departLane='best' type="res_veh_passenger" departSpeed='max'/>
    <trip id="res_veh137" depart="328.80" from="E21" to="E13" departLane='best' type="res_veh_passenger" departSpeed='max'/>
    <trip id="res_veh138" depart="331.20" from="E21" to="E6" departLane='best' type="res_veh_passenger" departSpeed='max'/>
    <trip id="res_veh139" depart="333.60" from="E21" to="E15" departLane='best' type="res_veh_passenger" departSpeed='max'/>
    <trip id="res_veh140" depart="336.00" from="E21" to="E25" departLane='best' type="res_veh_passenger" departSpeed='max'/>
    <trip id="res_veh141" depart="338.40" from="E21" to="E10" departLane='best' type="res_veh_passenger" departSpeed='max'/>
    <trip id="res_veh142" depart="340.80" from="E21" to="E13" departLane='best' type="res_veh_passenger" departSpeed='max'/>
    <trip id="res_veh143" depart="343.20" from="E21" to="E15" departLane='best' type="res_veh_passenger" departSpeed='max'/>
    <trip id="res_veh144" depart="345.60" from="E21" to="E17" departLane='best' type="res_veh_passenger" departSpeed='max'/>
    <trip id="res_veh145" depart="348.00" from="E21" to="E25" departLane='best' type="res_veh_passenger" departSpeed='max'/>
    <trip id="res_veh146" depart="350.40" from="E21" to="E28" departLane='best' type="res_veh_passenger" departSpeed='max'/>
    <trip id="res_veh147" depart="352.80" from="E21" to="E32" departLane='best' type="res_veh_passenger" departSpeed='max'/>
    <trip id="res_veh148" depart="355.20" from="E21" to="E32" departLane='best' type="res_veh_passenger" departSpeed='max'/>
    <trip id="res_veh149" depart="357.60" from="E21" to="E30" departLane='best' type="res_veh_passenger" departSpeed='max'/>
    <trip id="res_veh150" depart="360.00" from="E21" to="E1" departLane='best' type="res_veh_passenger" departSpeed='max'/>
    <trip id="res_veh151" depart="362.40" from="E21" to="E17" departLane='best' type="res_veh_passenger" departSpeed='max'/>
    <trip id="res_veh152" depart="364.80" from="E21" to="E17" departLane='best' type="res_veh_passenger" departSpeed='max'/>
    <trip id="res_veh153" depart="367.20" from="E21" to="E15" departLane='best' type="res_veh_passenger" departSpeed='max'/>
    <trip id="res_veh154" depart="369.60" from="E21" to="E30" departLane='best' type="res_veh_passenger" departSpeed='max'/>
    <trip id="res_veh155" depart="372.00" from="E21" to="E3" departLane='best' type="res_veh_passenger" departSpeed='max'/>
    <trip id="res_veh156" depart="374.40" from="E21" to="E25" departLane='best' type="res_veh_passenger" departSpeed='max'/>
    <trip id="res_veh157" depart="376.80" from="E21" to="E15" departLane='best' type="res_veh_passenger" departSpeed='max'/>
    <trip id="res_veh158" depart="379.20" from="E21" to="E28" departLane='best' type="res_veh_passenger" departSpeed='max'/>
    <trip id="res_veh159" depart="381.60" from="E21" to="E22" departLane='best' type="res_veh_passenger" departSpeed='max'/>
    <trip id="res_veh160" depart="384.00" from="E21" to="E14" departLane='best' type="res_veh_passenger" departSpeed='max'/>
    <trip id="res_veh161" depart="386.40" from="E21" to="E13" departLane='best' type="res_veh_passenger" departSpeed='max'/>
    <trip id="res_veh162" depart="388.80" from="E21" to="E25" departLane='best' type="res_veh_passenger" departSpeed='max'/>
    <trip id="res_veh163" depart="391.20" from="E21" to="E17" departLane='best' type="res_veh_passenger" departSpeed='max'/>
    <trip id="res_veh164" depart="393.60" from="E21" to="E4" departLane='best' type="res_veh_passenger" departSpeed='max'/>
    <trip id="res_veh165" depart="396.00" from="E21" to="E14" departLane='best' type="res_veh_passenger" departSpeed='max'/>
    <trip id="res_veh166" depart="398.40" from="E21" to="E22" departLane='best' type="res_veh_passenger" departSpeed='max'/>
    <trip id="res_veh167" depart="400.80" from="E21" to="E1" departLane='best' type="res_veh_passenger" departSpeed='max'/>
    <trip id="res_veh168" depart="403.20" from="E21" to="E3" departLane='best' type="res_veh_passenger" departSpeed='max'/>
    <trip id="res_veh169" depart="405.60" from="E21" to="E30" departLane='best' type="res_veh_passenger" departSpeed='max'/>
    <trip id="res_veh170" depart="408.00" from="E21" to="E14" departLane='best' type="res_veh_passenger" departSpeed='max'/>
    <trip id="res_veh171" depart="410.40" from="E21" to="E4" departLane='best' type="res_veh_passenger" departSpeed='max'/>
    <trip id="res_veh172" depart="412.80" from="E21" to="E8" departLane='best' type="res_veh_passenger" departSpeed='max'/>
    <trip id="res_veh173" depart="415.20" from="E21" to="E1" departLane='best' type="res_veh_passenger" departSpeed='max'/>
    <trip id="res_veh174" depart="417.60" from="E21" to="E8" departLane='best' type="res_veh_passenger" departSpeed='max'/>
    <trip id="res_veh175" depart="420.00" from="E21" to="E8" departLane='best' type="res_veh_passenger" departSpeed='max'/>
    <trip id="res_veh176" depart="422.40" from="E21" to="E3" departLane='best' type="res_veh_passenger" departSpeed='max'/>
    <trip id="res_veh177" depart="424.80" from="E21" to="E25" departLane='best' type="res_veh_passenger" departSpeed='max'/>
    <trip id="res_veh178" depart="427.20" from="E21" to="E25" departLane='best' type="res_veh_passenger" departSpeed='max'/>
    <trip id="res_veh179" depart="429.60" from="E21" to="E32" departLane='best' type="res_veh_passenger" departSpeed='max'/>
    <trip id="res_veh180" depart="432.00" from="E21" to="E15" departLane='best' type="res_veh_passenger" departSpeed='max'/>
    <trip id="res_veh181" depart="434.40" from="E21" to="E3" departLane='best' type="res_veh_passenger" departSpeed='max'/>
    <trip id="res_veh182" depart="436.80" from="E21" to="E25" departLane='best' type="res_veh_passenger" departSpeed='max'/>
    <trip id="res_veh183" depart="439.20" from="E21" to="E15" departLane='best' type="res_veh_passenger" departSpeed='max'/>
    <trip id="res_veh184" depart="441.60" from="E21" to="E15" departLane='best' type="res_veh_passenger" departSpeed='max'/>
    <trip id="res_veh185" depart="444.00" from="E21" to="E17" departLane='best' type="res_veh_passenger" departSpeed='max'/>
    <trip id="res_veh186" depart="446.40" from="E21" to="E10" departLane='best' type="res_veh_passenger" departSpeed='max'/>
    <trip id="res_veh187" depart="448.80" from="E21" to="E30" departLane='best' type="res_veh_passenger" departSpeed='max'/>
    <trip id="res_veh188" depart="451.20" from="E21" to="E1" departLane='best' type="res_veh_passenger" departSpeed='max'/>
    <trip id="res_veh189" depart="453.60" from="E21" to="E25" departLane='best' type="res_veh_passenger" departSpeed='max'/>
    <trip id="res_veh190" depart="456.00" from="E21" to="E14" departLane='best' type="res_veh_passenger" departSpeed='max'/>
    <trip id="res_veh191" depart="458.40" from="E21" to="E30" departLane='best' type="res_veh_passenger" departSpeed='max'/>
    <trip id="res_veh192" depart="460.80" from="E21" to="E4" departLane='best' type="res_veh_passenger" departSpeed='max'/>
    <trip id="res_veh193" depart="463.20" from="E21" to="E4" departLane='best' type="res_veh_passenger" departSpeed='max'/>
    <trip id="res_veh194" depart="465.60" from="E21" to="E8" departLane='best' type="res_veh_passenger" departSpeed='max'/>
    <trip id="res_veh195" depart="468.00" from="E21" to="E32" departLane='best' type="res_veh_passenger" departSpeed='max'/>
    <trip id="res_veh196" depart="470.40" from="E21" to="E3" departLane='best' type="res_veh_passenger" departSpeed='max'/>
    <trip id="res_veh197" depart="472.80" from="E21" to="E14" departLane='best' type="res_veh_passenger" departSpeed='max'/>
    <trip id="res_veh198" depart="475.20" from="E21" to="E30" departLane='best' type="res_veh_passenger" departSpeed='max'/>
    <trip id="res_veh199" depart="477.60" from="E21" to="E13" departLane='best' type="res_veh_passenger" departSpeed='max'/>
    <trip id="res_veh200" depart="480.00" from="E21" to="E10" departLane='best' type="res_veh_passenger" departSpeed='max'/>
    <trip id="res_veh201" depart="482.40" from="E21" to="E28" departLane='best' type="res_veh_passenger" departSpeed='max'/>
    <trip id="res_veh202" depart="484.80" from="E21" to="E3" departLane='best' type="res_veh_passenger" departSpeed='max'/>
    <trip id="res_veh203" depart="487.20" from="E21" to="E22" departLane='best' type="res_veh_passenger" departSpeed='max'/>
    <trip id="res_veh204" depart="489.60" from="E21" to="E17" departLane='best' type="res_veh_passenger" departSpeed='max'/>
    <trip id="res_veh205" depart="492.00" from="E21" to="E1" departLane='best' type="res_veh_passenger" departSpeed='max'/>
    <trip id="res_veh206" depart="494.40" from="E21" to="E25" departLane='best' type="res_veh_passenger" departSpeed='max'/>
    <trip id="res_veh207" depart="496.80" from="E21" to="E17" departLane='best' type="res_veh_passenger" departSpeed='max'/>
    <trip id="res_veh208" depart="499.20" from="E21" to="E4" departLane='best' type="res_veh_passenger" departSpeed='max'/>
    <trip id="res_veh209" depart="501.60" from="E21" to="E4" departLane='best' type="res_veh_passenger" departSpeed='max'/>
    <trip id="res_veh210" depart="504.00" from="E21" to="E13" departLane='best' type="res_veh_passenger" departSpeed='max'/>
    <trip id="res_veh211" depart="506.40" from="E21" to="E13" departLane='best' type="res_veh_passenger" departSpeed='max'/>
    <trip id="res_veh212" depart="508.80" from="E21" to="E30" departLane='best' type="res_veh_passenger" departSpeed='max'/>
    <trip id="res_veh213" depart="511.20" from="E21" to="E14" departLane='best' type="res_veh_passenger" departSpeed='max'/>
    <trip id="res_veh214" depart="513.60" from="E21" to="E4" departLane='best' type="res_veh_passenger" departSpeed='max'/>
    <trip id="res_veh215" depart="516.00" from="E21" to="E3" departLane='best' type="res_veh_passenger" departSpeed='max'/>
    <trip id="res_veh216" depart="518.40" from="E21" to="E10" departLane='best' type="res_veh_passenger" departSpeed='max'/>
    <trip id="res_veh217" depart="520.80" from="E21" to="E8" departLane='best' type="res_veh_passenger" departSpeed='max'/>
    <trip id="res_veh218" depart="523.20" from="E21" to="E30" departLane='best' type="res_veh_passenger" departSpeed='max'/>
    <trip id="res_veh219" depart="525.60" from="E21" to="E1" departLane='best' type="res_veh_passenger" departSpeed='max'/>
    <trip id="res_veh220" depart="528.00" from="E21" to="E3" departLane='best' type="res_veh_passenger" departSpeed='max'/>
    <trip id="res_veh221" depart="530.40" from="E21" to="E4" departLane='best' type="res_veh_passenger" departSpeed='max'/>
    <trip id="res_veh222" depart="532.80" from="E21" to="E3" departLane='best' type="res_veh_passenger" departSpeed='max'/>
    <trip id="res_veh223" depart="535.20" from="E21" to="E8" departLane='best' type="res_veh_passenger" departSpeed='max'/>
    <trip id="res_veh224" depart="537.60" from="E21" to="E17" departLane='best' type="res_veh_passenger" departSpeed='max'/>
    <trip id="res_veh225" depart="540.00" from="E21" to="E17" departLane='best' type="res_veh_passenger" departSpeed='max'/>
    <trip id="res_veh226" depart="542.40" from="E21" to="E8" departLane='best' type="res_veh_passenger" departSpeed='max'/>
    <trip id="res_veh227" depart="544.80" from="E21" to="E8" departLane='best' type="res_veh_passenger" departSpeed='max'/>
    <trip id="res_veh228" depart="547.20" from="E21" to="E22" departLane='best' type="res_veh_passenger" departSpeed='max'/>
    <trip id="res_veh229" depart="549.60" from="E21" to="E32" departLane='best' type="res_veh_passenger" departSpeed='max'/>
    <trip id="res_veh230" depart="552.00" from="E21" to="E6" departLane='best' type="res_veh_passenger" departSpeed='max'/>
    <trip id="res_veh231" depart="554.40" from="E21" to="E1" departLane='best' type="res_veh_passenger" departSpeed='max'/>
    <trip id="res_veh232" depart="556.80" from="E21" to="E14" departLane='best' type="res_veh_passenger" departSpeed='max'/>
    <trip id="res_veh233" depart="559.20" from="E21" to="E3" departLane='best' type="res_veh_passenger" departSpeed='max'/>
    <trip id="res_veh234" depart="561.60" from="E21" to="E13" departLane='best' type="res_veh_passenger" departSpeed='max'/>