<?xml version="1.0" encoding="UTF-8"?>

<!-- generated on 2025-07-19 12:00:04 by Eclipse SUMO duarouter Version 1.22.0
<duarouterConfiguration xmlns:xsi="http://www.w3.org/2001/XMLSchema-instance" xsi:noNamespaceSchemaLocation="http://sumo.dlr.de/xsd/duarouterConfiguration.xsd">

    <input>
        <net-file value="osm.net.xml.gz"/>
        <route-files value="osm.res_motorcycle.trips.xml"/>
    </input>

    <output>
        <output-file value="osm.res_motorcycle.rou.xml"/>
    </output>

</duarouterConfiguration>
-->

<routes xmlns:xsi="http://www.w3.org/2001/XMLSchema-instance" xsi:noNamespaceSchemaLocation="http://sumo.dlr.de/xsd/routes_file.xsd">
    <vehicle id="res_motorcycle1" depart="2.40" departLane="best" departSpeed="max">
        <route edges="E16 E5 E6 E13"/>
    </vehicle>
    <vehicle id="res_motorcycle3" depart="7.20" departLane="best">
        <route edges="E7 E1"/>
    </vehicle>
    <vehicle id="res_motorcycle5" depart="12.00" departLane="best" departSpeed="max">
        <route edges="E12 E7 E2 E20"/>
    </vehicle>
    <vehicle id="res_motorcycle6" depart="14.40" departLane="best">
        <route edges="E0 E6 E13"/>
    </vehicle>
    <vehicle id="res_motorcycle8" depart="19.20" departLane="best" departSpeed="max">
        <route edges="E12 E7 E2 E22"/>
    </vehicle>
    <vehicle id="res_motorcycle11" depart="26.40" departLane="best" departSpeed="max">
        <route edges="E18 E0 E4 E10"/>
    </vehicle>
    <vehicle id="res_motorcycle12" depart="28.80" departLane="best" departSpeed="max">
        <route edges="E9 E15"/>
    </vehicle>
    <vehicle id="res_motorcycle13" depart="31.20" departLane="best">
        <route edges="E1"/>
    </vehicle>
    <vehicle id="res_motorcycle16" depart="38.40" departLane="best" departSpeed="max">
        <route edges="E21 E3 E1 E8"/>
    </vehicle>
    <vehicle id="res_motorcycle17" depart="40.80" departLane="best" departSpeed="max">
        <route edges="E19 E7 E2 E20"/>
    </vehicle>
    <vehicle id="res_motorcycle21" depart="50.40" departLane="best" departSpeed="max">
        <route edges="E12 E14"/>
    </vehicle>
    <vehicle id="res_motorcycle24" depart="57.60" departLane="best">
        <route edges="E3 E1 E15"/>
    </vehicle>
    <vehicle id="res_motorcycle25" depart="60.00" departLane="best" departSpeed="max">
        <route edges="E18 E0 E6 E13"/>
    </vehicle>
    <vehicle id="res_motorcycle29" depart="69.60" departLane="best" departSpeed="max">
        <route edges="E11 E17"/>
    </vehicle>
    <vehicle id="res_motorcycle31" depart="74.40" departLane="best" departSpeed="max">
        <route edges="E21 E3"/>
    </vehicle>
    <vehicle id="res_motorcycle34" depart="81.60" departLane="best" departSpeed="max">
        <route edges="E18 E0 E6 E14"/>
    </vehicle>
    <vehicle id="res_motorcycle35" depart="84.00" departLane="best" departSpeed="max">
        <route edges="E12 E7 E1 E8"/>
    </vehicle>
    <vehicle id="res_motorcycle36" depart="86.40" departLane="best">
        <route edges="E7 E1 E15"/>
    </vehicle>
    <vehicle id="res_motorcycle37" depart="88.80" departLane="best">
        <route edges="E3 E4 E17"/>
    </vehicle>
    <vehicle id="res_motorcycle38" depart="91.20" departLane="best">
        <route edges="E7 E2"/>
    </vehicle>
    <vehicle id="res_motorcycle39" depart="93.60" departLane="best" departSpeed="max">
        <route edges="E16 E5 E6 E13"/>
    </vehicle>
    <vehicle id="res_motorcycle40" depart="96.00" departLane="best" departSpeed="max">
        <route edges="E21 E3 E6 E14"/>
    </vehicle>
    <vehicle id="res_motorcycle42" depart="100.80" departLane="best" departSpeed="max">
        <route edges="E19 E13"/>
    </vehicle>
    <vehicle id="res_motorcycle43" depart="103.20" departLane="best" departSpeed="max">
        <route edges="E9 E0 E2 E20"/>
    </vehicle>
    <vehicle id="res_motorcycle48" depart="115.20" departLane="best" departSpeed="max">
        <route edges="E9 E0 E2 E20"/>
    </vehicle>
    <vehicle id="res_motorcycle49" depart="117.60" departLane="best" departSpeed="max">
        <route edges="E9 E0 E6"/>
    </vehicle>
    <vehicle id="res_motorcycle50" depart="120.00" departLane="best">
        <route edges="E0 E4"/>
    </vehicle>
    <vehicle id="res_motorcycle56" depart="134.40" departLane="best" departSpeed="max">
        <route edges="E21 E3 E4 E10"/>
    </vehicle>
    <vehicle id="res_motorcycle59" depart="141.60" departLane="best" departSpeed="max">
        <route edges="E23 E3 E4 E10"/>
    </vehicle>
    <vehicle id="res_motorcycle60" depart="144.00" departLane="best">
        <route edges="E5 E2 E20"/>
    </vehicle>
    <vehicle id="res_motorcycle61" depart="146.40" departLane="best">
        <route edges="E5 E2 E20"/>
    </vehicle>
    <vehicle id="res_motorcycle66" depart="158.40" departLane="best">
        <route edges="E7 E1 E8"/>
    </vehicle>
    <vehicle id="res_motorcycle70" depart="168.00" departLane="best">
        <route edges="E2 E20"/>
    </vehicle>
    <vehicle id="res_motorcycle71" depart="170.40" departLane="best" departSpeed="max">
        <route edges="E16 E5 E6"/>
    </vehicle>
    <vehicle id="res_motorcycle72" depart="172.80" departLane="best" departSpeed="max">
        <route edges="E19 E13"/>
    </vehicle>
    <vehicle id="res_motorcycle73" depart="175.20" departLane="best" departSpeed="max">
        <route edges="E21 E3 E4"/>
    </vehicle>
    <vehicle id="res_motorcycle74" depart="177.60" departLane="best" departSpeed="max">
        <route edges="E12 E14"/>
    </vehicle>
    <vehicle id="res_motorcycle76" depart="182.40" departLane="best">
        <route edges="E2 E20"/>
    </vehicle>
    <vehicle id="res_motorcycle78" depart="187.20" departLane="best" departSpeed="max">
        <route edges="E18 E0 E2 E22"/>
    </vehicle>
    <vehicle id="res_motorcycle81" depart="194.40" departLane="best" departSpeed="max">
        <route edges="E12 E7"/>
    </vehicle>
</routes>
