<?xml version="1.0" encoding="UTF-8"?>

<!-- generated on 2025-07-26 15:09:24 by Eclipse SUMO netedit Version 1.22.0
-->

<additional xmlns:xsi="http://www.w3.org/2001/XMLSchema-instance" xsi:noNamespaceSchemaLocation="http://sumo.dlr.de/xsd/additional_file.xsd">
    <!-- Detectors -->
    <laneAreaDetector id="e2_0" lane="E3_1" pos="432.00" length="100.00" period="300.00" file="e2_0.xml" friendlyPos="1"/>
    <laneAreaDetector id="e2_1" lane="E3_2" pos="431.00" length="100.00" period="300.00" file="e2_1.xml" friendlyPos="1"/>
    <laneAreaDetector id="e2_10" lane="E7_2" pos="337.00" length="100.00" period="300.00" file="e2_10.xml" friendlyPos="1"/>
    <laneAreaDetector id="e2_11" lane="E7_1" pos="337.00" length="100.00" period="300.00" file="e2_11.xml" friendlyPos="1"/>
    <laneAreaDetector id="e2_12" lane="E27.479_1" pos="440.00" length="100.00" period="300.00" file="e2_12.xml"/>
    <laneAreaDetector id="e2_13" lane="E27.479_2" pos="440.00" length="100.00" period="300.00" file="e2_13.xml"/>
    <laneAreaDetector id="e2_14" lane="E5_2" pos="328.00" length="100.00" period="300.00" file="e2_14.xml" friendlyPos="1"/>
    <laneAreaDetector id="e2_15" lane="E5_1" pos="328.00" length="100.00" period="300.00" file="e2_15.xml" friendlyPos="1"/>
    <laneAreaDetector id="e2_16" lane="E23.356_2" pos="337.00" length="100.00" period="300.00" file="e2_16.xml"/>
    <laneAreaDetector id="e2_17" lane="E23.356_1" pos="337.00" length="100.00" period="300.00" file="e2_17.xml"/>
    <laneAreaDetector id="e2_18" lane="E2_2" pos="431.00" length="100.00" period="300.00" file="e2_18.xml"/>
    <laneAreaDetector id="e2_19" lane="E2_1" pos="431.00" length="100.00" period="300.00" file="e2_19.xml"/>
    <laneAreaDetector id="e2_2" lane="E4_1" pos="328.00" length="100.00" period="300.00" file="e2_2.xml"/>
    <laneAreaDetector id="e2_20" lane="E31.622_1" pos="364.00" length="100.00" period="300.00" file="e2_20.xml"/>
    <laneAreaDetector id="e2_21" lane="E31.622_2" pos="364.00" length="100.00" period="300.00" file="e2_21.xml"/>
    <laneAreaDetector id="e2_22" lane="E21_1" pos="1318.18" length="100.00" period="300.00" file="e2_22.xml" friendlyPos="1"/>
    <laneAreaDetector id="e2_23" lane="E21_2" pos="1318.18" length="100.00" period="300.00" file="e2_23.xml" friendlyPos="1"/>
    <laneAreaDetector id="e2_24" lane="E1_2" pos="372.00" length="100.00" period="300.00" file="e2_24.xml"/>
    <laneAreaDetector id="e2_25" lane="E1_1" pos="372.00" length="100.00" period="300.00" file="e2_25.xml"/>
    <laneAreaDetector id="e2_26" lane="E29.307_2" pos="338.00" length="100.00" period="300.00" file="e2_26.xml" friendlyPos="1"/>
    <laneAreaDetector id="e2_27" lane="E29.307_1" pos="338.00" length="100.00" period="300.00" file="e2_27.xml" friendlyPos="1"/>
    <laneAreaDetector id="e2_28" lane="E18.410_1" pos="434.00" length="100.00" period="300.00" file="e2_28.xml"/>
    <laneAreaDetector id="e2_29" lane="E18.410_2" pos="434.00" length="100.00" period="300.00" file="e2_29.xml"/>
    <laneAreaDetector id="e2_3" lane="E4_2" pos="328.00" length="100.00" period="300.00" file="e2_3.xml"/>
    <laneAreaDetector id="e2_30" lane="E9_1" pos="1567.00" length="100.00" period="300.00" file="e2_30.xml"/>
    <laneAreaDetector id="e2_31" lane="E9_2" pos="1567.00" length="100.00" period="300.00" file="e2_31.xml"/>
    <laneAreaDetector id="e2_32" lane="E26.415_1" pos="377.00" length="100.00" period="300.00" file="e2_32.xml"/>
    <laneAreaDetector id="e2_33" lane="E26.415_2" pos="377.00" length="100.00" period="300.00" file="e2_33.xml"/>
    <laneAreaDetector id="e2_34" lane="E12_2" pos="1424.01" length="100.00" period="300.00" file="e2_34.xml"/>
    <laneAreaDetector id="e2_36" lane="E24.357_2" pos="329.00" length="100.00" period="300.00" file="e2_36.xml"/>
    <laneAreaDetector id="e2_37" lane="E24.357_1" pos="329.00" length="100.00" period="300.00" file="e2_37.xml"/>
    <laneAreaDetector id="e2_38" lane="E6_1" pos="337.00" length="100.00" period="300.00" file="e2_38.xml"/>
    <laneAreaDetector id="e2_39" lane="E6_2" pos="337.00" length="100.00" period="300.00" file="e2_39.xml"/>
    <laneAreaDetector id="e2_4" lane="E0_1" pos="372.00" length="100.00" period="300.00" file="e2_4.xml" friendlyPos="1"/>
    <laneAreaDetector id="e2_40" lane="E25_2" pos="377.00" length="100.00" period="300.00" file="e2_40.xml"/>
    <laneAreaDetector id="e2_41" lane="E25_1" pos="377.00" length="100.00" period="300.00" file="e2_41.xml"/>
    <laneAreaDetector id="e2_42" lane="E29_2" pos="1425.88" length="100.00" period="300.00" file="e2_42.xml" friendlyPos="1"/>
    <laneAreaDetector id="e2_43" lane="E29_1" pos="1425.88" length="100.00" period="300.00" file="e2_43.xml" friendlyPos="1"/>
    <laneAreaDetector id="e2_44" lane="E26_1" pos="1559.10" length="100.00" period="300.00" file="e2_44.xml"/>
    <laneAreaDetector id="e2_45" lane="E26_2" pos="1559.10" length="100.00" period="300.00" file="e2_45.xml"/>
    <laneAreaDetector id="e2_46" lane="E15_1" pos="338.00" length="100.00" period="300.00" file="e2_46.xml"/>
    <laneAreaDetector id="e2_47" lane="E15_2" pos="338.00" length="100.00" period="300.00" file="e2_47.xml"/>
    <laneAreaDetector id="e2_48" lane="E30_2" pos="434.00" length="100.00" period="300.00" file="e2_48.xml"/>
    <laneAreaDetector id="e2_49" lane="E30_1" pos="434.00" length="100.00" period="300.00" file="e2_49.xml"/>
    <laneAreaDetector id="e2_5" lane="E0_2" pos="372.00" length="100.00" period="300.00" file="e2_5.xml" friendlyPos="1"/>
    <laneAreaDetector id="e2_50" lane="E31_1" pos="1567.19" length="100.00" period="300.00" file="e2_50.xml"/>
    <laneAreaDetector id="e2_51" lane="E31_2" pos="1567.19" length="100.00" period="300.00" file="e2_51.xml"/>
    <laneAreaDetector id="e2_52" lane="E22_2" pos="364.00" length="100.00" period="300.00" file="e2_52.xml" friendlyPos="1"/>
    <laneAreaDetector id="e2_53" lane="E22_1" pos="364.00" length="100.00" period="300.00" file="e2_53.xml" friendlyPos="1"/>
    <laneAreaDetector id="e2_54" lane="E18_1" pos="1316.70" length="100.00" period="300.00" file="e2_54.xml" friendlyPos="1"/>
    <laneAreaDetector id="e2_55" lane="E18_2" pos="1316.70" length="100.00" period="300.00" file="e2_55.xml" friendlyPos="1"/>
    <laneAreaDetector id="e2_56" lane="E32_1" pos="337.00" length="100.00" period="300.00" file="e2_56.xml"/>
    <laneAreaDetector id="e2_57" lane="E32_2" pos="337.00" length="100.00" period="300.00" file="e2_57.xml"/>
    <laneAreaDetector id="e2_58" lane="E17_2" pos="440.00" length="100.00" period="300.00" file="e2_58.xml"/>
    <laneAreaDetector id="e2_59" lane="E17_1" pos="440.00" length="100.00" period="300.00" file="e2_59.xml"/>
    <laneAreaDetector id="e2_6" lane="E16.294_2" pos="343.00" length="100.00" period="300.00" file="e2_6.xml"/>
    <laneAreaDetector id="e2_60" lane="E23_2" pos="1243.68" length="100.00" period="300.00" file="e2_60.xml"/>
    <laneAreaDetector id="e2_61" lane="E23_1" pos="1243.68" length="100.00" period="300.00" file="e2_61.xml"/>
    <laneAreaDetector id="e2_62" lane="E27_1" pos="1314.05" length="100.00" period="300.00" file="e2_62.xml" friendlyPos="1"/>
    <laneAreaDetector id="e2_63" lane="E27_2" pos="1314.05" length="100.00" period="300.00" file="e2_63.xml" friendlyPos="1"/>
    <laneAreaDetector id="e2_64" lane="E16_2" pos="1422.67" length="100.00" period="300.00" file="e2_64.xml" friendlyPos="1"/>
    <laneAreaDetector id="e2_65" lane="E16_1" pos="1422.67" length="100.00" period="300.00" file="e2_65.xml" friendlyPos="1"/>
    <laneAreaDetector id="e2_66" lane="E14_1" pos="329.00" length="100.00" period="300.00" file="e2_66.xml"/>
    <laneAreaDetector id="e2_67" lane="E14_2" pos="329.00" length="100.00" period="300.00" file="e2_67.xml"/>
    <laneAreaDetector id="e2_68" lane="E24_2" pos="1257.71" length="100.00" period="300.00" file="e2_68.xml"/>
    <laneAreaDetector id="e2_69" lane="E24_1" pos="1257.71" length="100.00" period="300.00" file="e2_69.xml"/>
    <laneAreaDetector id="e2_7" lane="E16.294_1" pos="343.00" length="100.00" period="300.00" file="e2_7.xml"/>
    <laneAreaDetector id="e2_70" lane="E28_1" pos="343.00" length="100.00" period="300.00" file="e2_70.xml"/>
    <laneAreaDetector id="e2_71" lane="E28_2" pos="343.00" length="100.00" period="300.00" file="e2_71.xml"/>
    <laneAreaDetector id="e2_8" lane="E11_2" pos="1251.91" length="100.00" period="300.00" file="e2_8.xml"/>
    <laneAreaDetector id="e2_9" lane="E11_1" pos="1251.91" length="100.00" period="300.00" file="e2_9.xml"/>
</additional>
