<?xml version="1.0" encoding="UTF-8"?>

<!-- generated on 2025-07-21 09:25:28.995761 by randomTrips.py v1_22_0+0002-63e50f52594
<configuration>
    <net-file value="osm.net.xml.gz"/>
    <weights-prefix value="res_bike_overflow_west"/>
    <output-trip-file value="osm.res_bike.trips.xml"/>
    <prefix value="res_bike"/>
    <trip-attributes value="departLane='best'"/>
    <fringe-start-attributes value="departSpeed='max'"/>
    <vehicle-class value="bicycle"/>
    <vclass value="bicycle"/>
    <remove-loops value="True"/>
    <validate value="True"/>
    <insertion-rate value="152.0"/>
</configuration>
-->

<!-- generated on 2025-07-21 09:25:28 by Eclipse SUMO duarouter Version 1.22.0
<duarouterConfiguration xmlns:xsi="http://www.w3.org/2001/XMLSchema-instance" xsi:noNamespaceSchemaLocation="http://sumo.dlr.de/xsd/duarouterConfiguration.xsd">

    <input>
        <net-file value="osm.net.xml.gz"/>
        <route-files value="osm.res_bike.trips.xml"/>
    </input>

    <output>
        <output-file value="osm.res_bike.trips.xml.tmp"/>
        <alternatives-output value="NUL"/>
        <write-trips value="true"/>
    </output>

    <processing>
        <remove-loops value="true"/>
    </processing>

    <time>
        <begin value="0.0"/>
        <end value="3600.0"/>
    </time>

    <report>
        <no-warnings value="true"/>
        <ignore-errors value="true"/>
        <no-step-log value="true"/>
    </report>

</duarouterConfiguration>
-->

<routes xmlns:xsi="http://www.w3.org/2001/XMLSchema-instance" xsi:noNamespaceSchemaLocation="http://sumo.dlr.de/xsd/routes_file.xsd">
    <vType id="res_bike_bicycle" vClass="bicycle"/>
    <trip id="res_bike3" type="res_bike_bicycle" depart="71.05" departLane="best" from="E5" to="E1"/>
    <trip id="res_bike5" type="res_bike_bicycle" depart="118.42" departLane="best" departSpeed="max" from="E11" to="E20"/>
    <trip id="res_bike8" type="res_bike_bicycle" depart="189.47" departLane="best" departSpeed="max" from="E11" to="E22"/>
    <trip id="res_bike10" type="res_bike_bicycle" depart="236.84" departLane="best" from="E4" to="E4"/>
    <trip id="res_bike11" type="res_bike_bicycle" depart="260.53" departLane="best" departSpeed="max" from="E16" to="E10"/>
    <trip id="res_bike12" type="res_bike_bicycle" depart="284.21" departLane="best" from="E7" to="E15"/>
    <trip id="res_bike14" type="res_bike_bicycle" depart="331.58" departLane="best" from="E5" to="E22"/>
    <trip id="res_bike15" type="res_bike_bicycle" depart="355.26" departLane="best" from="E4" to="E4"/>
    <trip id="res_bike17" type="res_bike_bicycle" depart="402.63" departLane="best" departSpeed="max" from="E16" to="E20"/>
    <trip id="res_bike18" type="res_bike_bicycle" depart="426.32" departLane="best" from="E5" to="E22"/>
    <trip id="res_bike19" type="res_bike_bicycle" depart="450.00" departLane="best" from="E5" to="E22"/>
    <trip id="res_bike21" type="res_bike_bicycle" depart="497.37" departLane="best" departSpeed="max" from="E11" to="E14"/>
    <trip id="res_bike24" type="res_bike_bicycle" depart="568.42" departLane="best" departSpeed="max" from="E21" to="E15"/>
    <trip id="res_bike25" type="res_bike_bicycle" depart="592.11" departLane="best" departSpeed="max" from="E16" to="E13"/>
    <trip id="res_bike26" type="res_bike_bicycle" depart="615.79" departLane="best" departSpeed="max" from="E12" to="E7"/>
    <trip id="res_bike27" type="res_bike_bicycle" depart="639.47" departLane="best" departSpeed="max" from="E21" to="E22"/>
    <trip id="res_bike29" type="res_bike_bicycle" depart="686.84" departLane="best" departSpeed="max" from="E11" to="E17"/>
    <trip id="res_bike32" type="res_bike_bicycle" depart="757.89" departLane="best" from="E5" to="E5"/>
    <trip id="res_bike34" type="res_bike_bicycle" depart="805.26" departLane="best" from="E14" to="E14"/>
    <trip id="res_bike35" type="res_bike_bicycle" depart="828.95" departLane="best" departSpeed="max" from="E11" to="E8"/>
    <trip id="res_bike36" type="res_bike_bicycle" depart="852.63" departLane="best" from="E5" to="E15"/>
    <trip id="res_bike38" type="res_bike_bicycle" depart="900.00" departLane="best" from="E5" to="E2"/>
    <trip id="res_bike39" type="res_bike_bicycle" depart="923.68" departLane="best" departSpeed="max" from="E11" to="E13"/>
    <trip id="res_bike41" type="res_bike_bicycle" depart="971.05" departLane="best" departSpeed="max" from="E19" to="E7"/>
    <trip id="res_bike42" type="res_bike_bicycle" depart="994.74" departLane="best" departSpeed="max" from="E16" to="E13"/>
    <trip id="res_bike43" type="res_bike_bicycle" depart="1018.42" departLane="best" departSpeed="max" from="E9" to="E20"/>
    <trip id="res_bike46" type="res_bike_bicycle" depart="1089.47" departLane="best" from="E4" to="E17"/>
    <trip id="res_bike48" type="res_bike_bicycle" depart="1136.84" departLane="best" departSpeed="max" from="E9" to="E20"/>
    <trip id="res_bike50" type="res_bike_bicycle" depart="1184.21" departLane="best" from="E0" to="E4"/>
    <trip id="res_bike51" type="res_bike_bicycle" depart="1207.89" departLane="best" departSpeed="max" from="E23" to="E20"/>
    <trip id="res_bike55" type="res_bike_bicycle" depart="1302.63" departLane="best" from="E5" to="E14"/>
    <trip id="res_bike57" type="res_bike_bicycle" depart="1350.00" departLane="best" from="E5" to="E6"/>
    <trip id="res_bike64" type="res_bike_bicycle" depart="1515.79" departLane="best" from="E5" to="E6"/>
    <trip id="res_bike66" type="res_bike_bicycle" depart="1563.16" departLane="best" from="E5" to="E8"/>
    <trip id="res_bike69" type="res_bike_bicycle" depart="1634.21" departLane="best" from="E4" to="E10"/>
    <trip id="res_bike71" type="res_bike_bicycle" depart="1681.58" departLane="best" departSpeed="max" from="E11" to="E6"/>
    <trip id="res_bike72" type="res_bike_bicycle" depart="1705.26" departLane="best" departSpeed="max" from="E16" to="E13"/>
    <trip id="res_bike74" type="res_bike_bicycle" depart="1752.63" departLane="best" departSpeed="max" from="E11" to="E14"/>
    <trip id="res_bike76" type="res_bike_bicycle" depart="1800.00" departLane="best" departSpeed="max" from="E16" to="E20"/>
    <trip id="res_bike78" type="res_bike_bicycle" depart="1847.37" departLane="best" departSpeed="max" from="E16" to="E22"/>
    <trip id="res_bike79" type="res_bike_bicycle" depart="1871.05" departLane="best" departSpeed="max" from="E11" to="E13"/>
    <trip id="res_bike82" type="res_bike_bicycle" depart="1942.11" departLane="best" from="E5" to="E1"/>
    <trip id="res_bike89" type="res_bike_bicycle" depart="2107.89" departLane="best" departSpeed="max" from="E16" to="E2"/>
    <trip id="res_bike92" type="res_bike_bicycle" depart="2178.95" departLane="best" departSpeed="max" from="E16" to="E15"/>
    <trip id="res_bike93" type="res_bike_bicycle" depart="2202.63" departLane="best" from="E5" to="E13"/>
    <trip id="res_bike94" type="res_bike_bicycle" depart="2226.32" departLane="best" departSpeed="max" from="E11" to="E2"/>
    <trip id="res_bike95" type="res_bike_bicycle" depart="2250.00" departLane="best" departSpeed="max" from="E16" to="E14"/>
    <trip id="res_bike97" type="res_bike_bicycle" depart="2297.37" departLane="best" departSpeed="max" from="E16" to="E6"/>
    <trip id="res_bike99" type="res_bike_bicycle" depart="2344.74" departLane="best" departSpeed="max" from="E9" to="E6"/>
    <trip id="res_bike104" type="res_bike_bicycle" depart="2463.16" departLane="best" departSpeed="max" from="E16" to="E8"/>
    <trip id="res_bike105" type="res_bike_bicycle" depart="2486.84" departLane="best" departSpeed="max" from="E11" to="E5"/>
    <trip id="res_bike106" type="res_bike_bicycle" depart="2510.53" departLane="best" from="E17" to="E17"/>
    <trip id="res_bike107" type="res_bike_bicycle" depart="2534.21" departLane="best" from="E7" to="E8"/>
    <trip id="res_bike109" type="res_bike_bicycle" depart="2581.58" departLane="best" departSpeed="max" from="E11" to="E14"/>
    <trip id="res_bike114" type="res_bike_bicycle" depart="2700.00" departLane="best" departSpeed="max" from="E11" to="E8"/>
    <trip id="res_bike115" type="res_bike_bicycle" depart="2723.68" departLane="best" from="E10" to="E10"/>
    <trip id="res_bike117" type="res_bike_bicycle" depart="2771.05" departLane="best" departSpeed="max" from="E11" to="E1"/>
    <trip id="res_bike118" type="res_bike_bicycle" depart="2794.74" departLane="best" from="E5" to="E13"/>
    <trip id="res_bike119" type="res_bike_bicycle" depart="2818.42" departLane="best" departSpeed="max" from="E19" to="E22"/>
    <trip id="res_bike120" type="res_bike_bicycle" depart="2842.11" departLane="best" departSpeed="max" from="E16" to="E22"/>
    <trip id="res_bike123" type="res_bike_bicycle" depart="2913.16" departLane="best" departSpeed="max" from="E11" to="E17"/>
    <trip id="res_bike124" type="res_bike_bicycle" depart="2936.84" departLane="best" departSpeed="max" from="E23" to="E14"/>
    <trip id="res_bike131" type="res_bike_bicycle" depart="3102.63" departLane="best" departSpeed="max" from="E16" to="E10"/>
    <trip id="res_bike135" type="res_bike_bicycle" depart="3197.37" departLane="best" from="E5" to="E14"/>
    <trip id="res_bike139" type="res_bike_bicycle" depart="3292.11" departLane="best" departSpeed="max" from="E12" to="E22"/>
    <trip id="res_bike141" type="res_bike_bicycle" depart="3339.47" departLane="best" departSpeed="max" from="E21" to="E14"/>
    <trip id="res_bike143" type="res_bike_bicycle" depart="3386.84" departLane="best" from="E5" to="E1"/>
    <trip id="res_bike144" type="res_bike_bicycle" depart="3410.53" departLane="best" departSpeed="max" from="E16" to="E14"/>
    <trip id="res_bike146" type="res_bike_bicycle" depart="3457.89" departLane="best" departSpeed="max" from="E21" to="E14"/>
    <trip id="res_bike150" type="res_bike_bicycle" depart="3552.63" departLane="best" from="E5" to="E20"/>
    <trip id="res_bike151" type="res_bike_bicycle" depart="3576.32" departLane="best" from="E5" to="E22"/>
</routes>
