<?xml version="1.0" encoding="UTF-8"?>

<!-- generated on 2025-07-19 12:00:06 by Eclipse SUMO duarouter Version 1.22.0
<duarouterConfiguration xmlns:xsi="http://www.w3.org/2001/XMLSchema-instance" xsi:noNamespaceSchemaLocation="http://sumo.dlr.de/xsd/duarouterConfiguration.xsd">

    <input>
        <net-file value="osm.net.xml.gz"/>
        <route-files value="osm.res_truck.trips.xml"/>
    </input>

    <output>
        <output-file value="osm.res_truck.rou.xml"/>
    </output>

</duarouterConfiguration>
-->

<routes xmlns:xsi="http://www.w3.org/2001/XMLSchema-instance" xsi:noNamespaceSchemaLocation="http://sumo.dlr.de/xsd/routes_file.xsd">
    <vehicle id="res_truck1" depart="72.00" departLane="best" departSpeed="max">
        <route edges="E16 E5 E6 E13"/>
    </vehicle>
    <vehicle id="res_truck3" depart="216.00" departLane="best">
        <route edges="E7 E1"/>
    </vehicle>
    <vehicle id="res_truck5" depart="360.00" departLane="best" departSpeed="max">
        <route edges="E12 E7 E2 E20"/>
    </vehicle>
    <vehicle id="res_truck6" depart="432.00" departLane="best">
        <route edges="E0 E6 E13"/>
    </vehicle>
    <vehicle id="res_truck8" depart="576.00" departLane="best" departSpeed="max">
        <route edges="E12 E7 E2 E22"/>
    </vehicle>
    <vehicle id="res_truck11" depart="792.00" departLane="best" departSpeed="max">
        <route edges="E18 E0 E4 E10"/>
    </vehicle>
    <vehicle id="res_truck12" depart="864.00" departLane="best" departSpeed="max">
        <route edges="E9 E15"/>
    </vehicle>
    <vehicle id="res_truck13" depart="936.00" departLane="best">
        <route edges="E1"/>
    </vehicle>
    <vehicle id="res_truck16" depart="1152.00" departLane="best" departSpeed="max">
        <route edges="E21 E3 E1 E8"/>
    </vehicle>
    <vehicle id="res_truck17" depart="1224.00" departLane="best" departSpeed="max">
        <route edges="E19 E7 E2 E20"/>
    </vehicle>
    <vehicle id="res_truck21" depart="1512.00" departLane="best" departSpeed="max">
        <route edges="E12 E14"/>
    </vehicle>
    <vehicle id="res_truck24" depart="1728.00" departLane="best">
        <route edges="E3 E1 E15"/>
    </vehicle>
    <vehicle id="res_truck25" depart="1800.00" departLane="best" departSpeed="max">
        <route edges="E18 E0 E6 E13"/>
    </vehicle>
    <vehicle id="res_truck29" depart="2088.00" departLane="best" departSpeed="max">
        <route edges="E11 E17"/>
    </vehicle>
    <vehicle id="res_truck31" depart="2232.00" departLane="best" departSpeed="max">
        <route edges="E21 E3"/>
    </vehicle>
    <vehicle id="res_truck34" depart="2448.00" departLane="best" departSpeed="max">
        <route edges="E18 E0 E6 E14"/>
    </vehicle>
    <vehicle id="res_truck35" depart="2520.00" departLane="best" departSpeed="max">
        <route edges="E12 E7 E1 E8"/>
    </vehicle>
    <vehicle id="res_truck36" depart="2592.00" departLane="best">
        <route edges="E7 E1 E15"/>
    </vehicle>
    <vehicle id="res_truck37" depart="2664.00" departLane="best">
        <route edges="E3 E4 E17"/>
    </vehicle>
    <vehicle id="res_truck38" depart="2736.00" departLane="best">
        <route edges="E7 E2"/>
    </vehicle>
    <vehicle id="res_truck39" depart="2808.00" departLane="best" departSpeed="max">
        <route edges="E16 E5 E6 E13"/>
    </vehicle>
    <vehicle id="res_truck40" depart="2880.00" departLane="best" departSpeed="max">
        <route edges="E21 E3 E6 E14"/>
    </vehicle>
    <vehicle id="res_truck42" depart="3024.00" departLane="best" departSpeed="max">
        <route edges="E19 E13"/>
    </vehicle>
    <vehicle id="res_truck43" depart="3096.00" departLane="best" departSpeed="max">
        <route edges="E9 E0 E2 E20"/>
    </vehicle>
    <vehicle id="res_truck48" depart="3456.00" departLane="best" departSpeed="max">
        <route edges="E9 E0 E2 E20"/>
    </vehicle>
    <vehicle id="res_truck49" depart="3528.00" departLane="best" departSpeed="max">
        <route edges="E9 E0 E6"/>
    </vehicle>
</routes>
