<?xml version="1.0" encoding="UTF-8"?>

<!-- generated on 2025-07-21 09:25:28.183826 by randomTrips.py v1_22_0+0002-63e50f52594
<configuration>
    <net-file value="osm.net.xml.gz"/>
    <weights-prefix value="res_truck_overflow_west"/>
    <output-trip-file value="osm.res_truck.trips.xml"/>
    <prefix value="res_truck"/>
    <trip-attributes value="departLane='best'"/>
    <fringe-start-attributes value="departSpeed='max'"/>
    <vehicle-class value="truck"/>
    <vclass value="truck"/>
    <remove-loops value="True"/>
    <validate value="True"/>
    <insertion-rate value="100.0"/>
</configuration>
-->

<!-- generated on 2025-07-21 09:25:28 by Eclipse SUMO duarouter Version 1.22.0
<duarouterConfiguration xmlns:xsi="http://www.w3.org/2001/XMLSchema-instance" xsi:noNamespaceSchemaLocation="http://sumo.dlr.de/xsd/duarouterConfiguration.xsd">

    <input>
        <net-file value="osm.net.xml.gz"/>
        <route-files value="osm.res_truck.trips.xml"/>
    </input>

    <output>
        <output-file value="osm.res_truck.trips.xml.tmp"/>
        <alternatives-output value="NUL"/>
        <write-trips value="true"/>
    </output>

    <processing>
        <remove-loops value="true"/>
    </processing>

    <time>
        <begin value="0.0"/>
        <end value="3600.0"/>
    </time>

    <report>
        <no-warnings value="true"/>
        <ignore-errors value="true"/>
        <no-step-log value="true"/>
    </report>

</duarouterConfiguration>
-->

<routes xmlns:xsi="http://www.w3.org/2001/XMLSchema-instance" xsi:noNamespaceSchemaLocation="http://sumo.dlr.de/xsd/routes_file.xsd">
    <vType id="res_truck_truck" vClass="truck"/>
    <trip id="res_truck3" type="res_truck_truck" depart="108.00" departLane="best" from="E5" to="E1"/>
    <trip id="res_truck5" type="res_truck_truck" depart="180.00" departLane="best" departSpeed="max" from="E11" to="E20"/>
    <trip id="res_truck8" type="res_truck_truck" depart="288.00" departLane="best" departSpeed="max" from="E11" to="E22"/>
    <trip id="res_truck10" type="res_truck_truck" depart="360.00" departLane="best" from="E4" to="E4"/>
    <trip id="res_truck11" type="res_truck_truck" depart="396.00" departLane="best" departSpeed="max" from="E16" to="E10"/>
    <trip id="res_truck12" type="res_truck_truck" depart="432.00" departLane="best" from="E7" to="E15"/>
    <trip id="res_truck14" type="res_truck_truck" depart="504.00" departLane="best" from="E5" to="E22"/>
    <trip id="res_truck15" type="res_truck_truck" depart="540.00" departLane="best" from="E4" to="E4"/>
    <trip id="res_truck17" type="res_truck_truck" depart="612.00" departLane="best" departSpeed="max" from="E16" to="E20"/>
    <trip id="res_truck18" type="res_truck_truck" depart="648.00" departLane="best" from="E5" to="E22"/>
    <trip id="res_truck19" type="res_truck_truck" depart="684.00" departLane="best" from="E5" to="E22"/>
    <trip id="res_truck21" type="res_truck_truck" depart="756.00" departLane="best" departSpeed="max" from="E11" to="E14"/>
    <trip id="res_truck24" type="res_truck_truck" depart="864.00" departLane="best" departSpeed="max" from="E21" to="E15"/>
    <trip id="res_truck25" type="res_truck_truck" depart="900.00" departLane="best" departSpeed="max" from="E16" to="E13"/>
    <trip id="res_truck26" type="res_truck_truck" depart="936.00" departLane="best" departSpeed="max" from="E12" to="E7"/>
    <trip id="res_truck27" type="res_truck_truck" depart="972.00" departLane="best" departSpeed="max" from="E21" to="E22"/>
    <trip id="res_truck29" type="res_truck_truck" depart="1044.00" departLane="best" departSpeed="max" from="E11" to="E17"/>
    <trip id="res_truck32" type="res_truck_truck" depart="1152.00" departLane="best" from="E5" to="E5"/>
    <trip id="res_truck34" type="res_truck_truck" depart="1224.00" departLane="best" from="E14" to="E14"/>
    <trip id="res_truck35" type="res_truck_truck" depart="1260.00" departLane="best" departSpeed="max" from="E11" to="E8"/>
    <trip id="res_truck36" type="res_truck_truck" depart="1296.00" departLane="best" from="E5" to="E15"/>
    <trip id="res_truck38" type="res_truck_truck" depart="1368.00" departLane="best" from="E5" to="E2"/>
    <trip id="res_truck39" type="res_truck_truck" depart="1404.00" departLane="best" departSpeed="max" from="E11" to="E13"/>
    <trip id="res_truck41" type="res_truck_truck" depart="1476.00" departLane="best" departSpeed="max" from="E19" to="E7"/>
    <trip id="res_truck42" type="res_truck_truck" depart="1512.00" departLane="best" departSpeed="max" from="E16" to="E13"/>
    <trip id="res_truck43" type="res_truck_truck" depart="1548.00" departLane="best" departSpeed="max" from="E9" to="E20"/>
    <trip id="res_truck46" type="res_truck_truck" depart="1656.00" departLane="best" from="E4" to="E17"/>
    <trip id="res_truck48" type="res_truck_truck" depart="1728.00" departLane="best" departSpeed="max" from="E9" to="E20"/>
    <trip id="res_truck50" type="res_truck_truck" depart="1800.00" departLane="best" from="E0" to="E4"/>
    <trip id="res_truck51" type="res_truck_truck" depart="1836.00" departLane="best" departSpeed="max" from="E23" to="E20"/>
    <trip id="res_truck55" type="res_truck_truck" depart="1980.00" departLane="best" from="E5" to="E14"/>
    <trip id="res_truck57" type="res_truck_truck" depart="2052.00" departLane="best" from="E5" to="E6"/>
    <trip id="res_truck64" type="res_truck_truck" depart="2304.00" departLane="best" from="E5" to="E6"/>
    <trip id="res_truck66" type="res_truck_truck" depart="2376.00" departLane="best" from="E5" to="E8"/>
    <trip id="res_truck69" type="res_truck_truck" depart="2484.00" departLane="best" from="E4" to="E10"/>
    <trip id="res_truck71" type="res_truck_truck" depart="2556.00" departLane="best" departSpeed="max" from="E11" to="E6"/>
    <trip id="res_truck72" type="res_truck_truck" depart="2592.00" departLane="best" departSpeed="max" from="E16" to="E13"/>
    <trip id="res_truck74" type="res_truck_truck" depart="2664.00" departLane="best" departSpeed="max" from="E11" to="E14"/>
    <trip id="res_truck76" type="res_truck_truck" depart="2736.00" departLane="best" departSpeed="max" from="E16" to="E20"/>
    <trip id="res_truck78" type="res_truck_truck" depart="2808.00" departLane="best" departSpeed="max" from="E16" to="E22"/>
    <trip id="res_truck79" type="res_truck_truck" depart="2844.00" departLane="best" departSpeed="max" from="E11" to="E13"/>
    <trip id="res_truck82" type="res_truck_truck" depart="2952.00" departLane="best" from="E5" to="E1"/>
    <trip id="res_truck89" type="res_truck_truck" depart="3204.00" departLane="best" departSpeed="max" from="E16" to="E2"/>
    <trip id="res_truck92" type="res_truck_truck" depart="3312.00" departLane="best" departSpeed="max" from="E16" to="E15"/>
    <trip id="res_truck93" type="res_truck_truck" depart="3348.00" departLane="best" from="E5" to="E13"/>
    <trip id="res_truck94" type="res_truck_truck" depart="3384.00" departLane="best" departSpeed="max" from="E11" to="E2"/>
    <trip id="res_truck95" type="res_truck_truck" depart="3420.00" departLane="best" departSpeed="max" from="E16" to="E14"/>
    <trip id="res_truck97" type="res_truck_truck" depart="3492.00" departLane="best" departSpeed="max" from="E16" to="E6"/>
    <trip id="res_truck99" type="res_truck_truck" depart="3564.00" departLane="best" departSpeed="max" from="E9" to="E6"/>
</routes>
