<?xml version="1.0" encoding="UTF-8"?>

<!-- generated on 2025-07-17 16:02:46.122335 by randomTrips.py v1_22_0+0002-63e50f52594
<configuration>
    <net-file value="osm.net.xml.gz"/>
    <output-trip-file value="osm.res_ped.trips.xml"/>
    <prefix value="res_ped"/>
    <trip-attributes value="departLane='best'"/>
    <fringe-start-attributes value="departSpeed='max'"/>
    <vehicle-class value="pedestrian"/>
    <vclass value="pedestrian"/>
    <via-edge-types value="footway,path,sidewalk"/>
    <remove-loops value="True"/>
    <validate value="True"/>
    <insertion-rate value="100.0"/>
</configuration>
-->

<!-- generated on 2025-07-17 16:02:46 by Eclipse SUMO duarouter Version 1.22.0
<duarouterConfiguration xmlns:xsi="http://www.w3.org/2001/XMLSchema-instance" xsi:noNamespaceSchemaLocation="http://sumo.dlr.de/xsd/duarouterConfiguration.xsd">

    <input>
        <net-file value="osm.net.xml.gz"/>
        <route-files value="osm.res_ped.trips.xml"/>
    </input>

    <output>
        <output-file value="osm.res_ped.trips.xml.tmp"/>
        <alternatives-output value="NUL"/>
        <write-trips value="true"/>
    </output>

    <processing>
        <remove-loops value="true"/>
    </processing>

    <time>
        <begin value="0.0"/>
        <end value="3600.0"/>
    </time>

    <report>
        <no-warnings value="true"/>
        <ignore-errors value="true"/>
        <no-step-log value="true"/>
    </report>

</duarouterConfiguration>
-->

<routes xmlns:xsi="http://www.w3.org/2001/XMLSchema-instance" xsi:noNamespaceSchemaLocation="http://sumo.dlr.de/xsd/routes_file.xsd">
    <vType id="res_ped_pedestrian" vClass="pedestrian"/>
    <trip id="res_ped12" type="res_ped_pedestrian" depart="432.00" departLane="best" departSpeed="max" from="E9" to="E15"/>
    <trip id="res_ped13" type="res_ped_pedestrian" depart="468.00" departLane="best" from="E1" to="E1"/>
    <trip id="res_ped21" type="res_ped_pedestrian" depart="756.00" departLane="best" departSpeed="max" from="E12" to="E14"/>
    <trip id="res_ped29" type="res_ped_pedestrian" depart="1044.00" departLane="best" departSpeed="max" from="E11" to="E17"/>
    <trip id="res_ped42" type="res_ped_pedestrian" depart="1512.00" departLane="best" departSpeed="max" from="E19" to="E13"/>
    <trip id="res_ped72" type="res_ped_pedestrian" depart="2592.00" departLane="best" departSpeed="max" from="E19" to="E13"/>
    <trip id="res_ped74" type="res_ped_pedestrian" depart="2664.00" departLane="best" departSpeed="max" from="E12" to="E14"/>
    <trip id="res_ped95" type="res_ped_pedestrian" depart="3420.00" departLane="best" departSpeed="max" from="E19" to="E14"/>
</routes>
