<?xml version="1.0" encoding="UTF-8"?>

<!-- generated on 2025-07-21 09:25:27.197083 by randomTrips.py v1_22_0+0002-63e50f52594
<configuration>
    <net-file value="osm.net.xml.gz"/>
    <weights-prefix value="res_veh_overflow_west"/>
    <output-trip-file value="osm.res_veh.trips.xml"/>
    <prefix value="res_veh"/>
    <trip-attributes value="departLane='best'"/>
    <fringe-start-attributes value="departSpeed='max'"/>
    <vehicle-class value="passenger"/>
    <remove-loops value="True"/>
    <validate value="True"/>
    <insertion-rate value="752.0"/>
</configuration>
-->

<!-- generated on 2025-07-21 09:25:27 by Eclipse SUMO duarouter Version 1.22.0
<duarouterConfiguration xmlns:xsi="http://www.w3.org/2001/XMLSchema-instance" xsi:noNamespaceSchemaLocation="http://sumo.dlr.de/xsd/duarouterConfiguration.xsd">

    <input>
        <net-file value="osm.net.xml.gz"/>
        <route-files value="osm.res_veh.trips.xml"/>
    </input>

    <output>
        <output-file value="osm.res_veh.trips.xml.tmp"/>
        <alternatives-output value="NUL"/>
        <write-trips value="true"/>
    </output>

    <processing>
        <remove-loops value="true"/>
    </processing>

    <time>
        <begin value="0.0"/>
        <end value="3600.0"/>
    </time>

    <report>
        <no-warnings value="true"/>
        <ignore-errors value="true"/>
        <no-step-log value="true"/>
    </report>

</duarouterConfiguration>
-->

<routes xmlns:xsi="http://www.w3.org/2001/XMLSchema-instance" xsi:noNamespaceSchemaLocation="http://sumo.dlr.de/xsd/routes_file.xsd">
    <vType id="res_veh_passenger" vClass="passenger"/>
    <trip id="res_veh3" type="res_veh_passenger" depart="14.36" departLane="best" from="E5" to="E1"/>
    <trip id="res_veh5" type="res_veh_passenger" depart="23.94" departLane="best" departSpeed="max" from="E11" to="E20"/>
    <trip id="res_veh8" type="res_veh_passenger" depart="38.30" departLane="best" departSpeed="max" from="E11" to="E22"/>
    <trip id="res_veh10" type="res_veh_passenger" depart="47.87" departLane="best" from="E4" to="E4"/>
    <trip id="res_veh11" type="res_veh_passenger" depart="52.66" departLane="best" departSpeed="max" from="E16" to="E10"/>
    <trip id="res_veh12" type="res_veh_passenger" depart="57.45" departLane="best" from="E7" to="E15"/>
    <trip id="res_veh14" type="res_veh_passenger" depart="67.02" departLane="best" from="E5" to="E22"/>
    <trip id="res_veh15" type="res_veh_passenger" depart="71.81" departLane="best" from="E4" to="E4"/>
    <trip id="res_veh17" type="res_veh_passenger" depart="81.38" departLane="best" departSpeed="max" from="E16" to="E20"/>
    <trip id="res_veh18" type="res_veh_passenger" depart="86.17" departLane="best" from="E5" to="E22"/>
    <trip id="res_veh19" type="res_veh_passenger" depart="90.96" departLane="best" from="E5" to="E22"/>
    <trip id="res_veh21" type="res_veh_passenger" depart="100.53" departLane="best" departSpeed="max" from="E11" to="E14"/>
    <trip id="res_veh24" type="res_veh_passenger" depart="114.89" departLane="best" departSpeed="max" from="E21" to="E15"/>
    <trip id="res_veh25" type="res_veh_passenger" depart="119.68" departLane="best" departSpeed="max" from="E16" to="E13"/>
    <trip id="res_veh26" type="res_veh_passenger" depart="124.47" departLane="best" departSpeed="max" from="E12" to="E7"/>
    <trip id="res_veh27" type="res_veh_passenger" depart="129.26" departLane="best" departSpeed="max" from="E21" to="E22"/>
    <trip id="res_veh29" type="res_veh_passenger" depart="138.83" departLane="best" departSpeed="max" from="E11" to="E17"/>
    <trip id="res_veh32" type="res_veh_passenger" depart="153.19" departLane="best" from="E5" to="E5"/>
    <trip id="res_veh34" type="res_veh_passenger" depart="162.77" departLane="best" from="E14" to="E14"/>
    <trip id="res_veh35" type="res_veh_passenger" depart="167.55" departLane="best" departSpeed="max" from="E11" to="E8"/>
    <trip id="res_veh36" type="res_veh_passenger" depart="172.34" departLane="best" from="E5" to="E15"/>
    <trip id="res_veh38" type="res_veh_passenger" depart="181.91" departLane="best" from="E5" to="E2"/>
    <trip id="res_veh39" type="res_veh_passenger" depart="186.70" departLane="best" departSpeed="max" from="E11" to="E13"/>
    <trip id="res_veh41" type="res_veh_passenger" depart="196.28" departLane="best" departSpeed="max" from="E19" to="E7"/>
    <trip id="res_veh42" type="res_veh_passenger" depart="201.06" departLane="best" departSpeed="max" from="E16" to="E13"/>
    <trip id="res_veh43" type="res_veh_passenger" depart="205.85" departLane="best" departSpeed="max" from="E9" to="E20"/>
    <trip id="res_veh46" type="res_veh_passenger" depart="220.21" departLane="best" from="E4" to="E17"/>
    <trip id="res_veh48" type="res_veh_passenger" depart="229.79" departLane="best" departSpeed="max" from="E9" to="E20"/>
    <trip id="res_veh50" type="res_veh_passenger" depart="239.36" departLane="best" from="E0" to="E4"/>
    <trip id="res_veh51" type="res_veh_passenger" depart="244.15" departLane="best" departSpeed="max" from="E23" to="E20"/>
    <trip id="res_veh55" type="res_veh_passenger" depart="263.30" departLane="best" from="E5" to="E14"/>
    <trip id="res_veh57" type="res_veh_passenger" depart="272.87" departLane="best" from="E5" to="E6"/>
    <trip id="res_veh64" type="res_veh_passenger" depart="306.38" departLane="best" from="E5" to="E6"/>
    <trip id="res_veh66" type="res_veh_passenger" depart="315.96" departLane="best" from="E5" to="E8"/>
    <trip id="res_veh69" type="res_veh_passenger" depart="330.32" departLane="best" from="E4" to="E10"/>
    <trip id="res_veh71" type="res_veh_passenger" depart="339.89" departLane="best" departSpeed="max" from="E11" to="E6"/>
    <trip id="res_veh72" type="res_veh_passenger" depart="344.68" departLane="best" departSpeed="max" from="E16" to="E13"/>
    <trip id="res_veh74" type="res_veh_passenger" depart="354.26" departLane="best" departSpeed="max" from="E11" to="E14"/>
    <trip id="res_veh76" type="res_veh_passenger" depart="363.83" departLane="best" departSpeed="max" from="E16" to="E20"/>
    <trip id="res_veh78" type="res_veh_passenger" depart="373.40" departLane="best" departSpeed="max" from="E16" to="E22"/>
    <trip id="res_veh79" type="res_veh_passenger" depart="378.19" departLane="best" departSpeed="max" from="E11" to="E13"/>
    <trip id="res_veh82" type="res_veh_passenger" depart="392.55" departLane="best" from="E5" to="E1"/>
    <trip id="res_veh89" type="res_veh_passenger" depart="426.06" departLane="best" departSpeed="max" from="E16" to="E2"/>
    <trip id="res_veh92" type="res_veh_passenger" depart="440.43" departLane="best" departSpeed="max" from="E16" to="E15"/>
    <trip id="res_veh93" type="res_veh_passenger" depart="445.21" departLane="best" from="E5" to="E13"/>
    <trip id="res_veh94" type="res_veh_passenger" depart="450.00" departLane="best" departSpeed="max" from="E11" to="E2"/>
    <trip id="res_veh95" type="res_veh_passenger" depart="454.79" departLane="best" departSpeed="max" from="E16" to="E14"/>
    <trip id="res_veh97" type="res_veh_passenger" depart="464.36" departLane="best" departSpeed="max" from="E16" to="E6"/>
    <trip id="res_veh99" type="res_veh_passenger" depart="473.94" departLane="best" departSpeed="max" from="E9" to="E6"/>
    <trip id="res_veh104" type="res_veh_passenger" depart="497.87" departLane="best" departSpeed="max" from="E16" to="E8"/>
    <trip id="res_veh105" type="res_veh_passenger" depart="502.66" departLane="best" departSpeed="max" from="E11" to="E5"/>
    <trip id="res_veh106" type="res_veh_passenger" depart="507.45" departLane="best" from="E17" to="E17"/>
    <trip id="res_veh107" type="res_veh_passenger" depart="512.23" departLane="best" from="E7" to="E8"/>
    <trip id="res_veh109" type="res_veh_passenger" depart="521.81" departLane="best" departSpeed="max" from="E11" to="E14"/>
    <trip id="res_veh114" type="res_veh_passenger" depart="545.74" departLane="best" departSpeed="max" from="E11" to="E8"/>
    <trip id="res_veh115" type="res_veh_passenger" depart="550.53" departLane="best" from="E10" to="E10"/>
    <trip id="res_veh117" type="res_veh_passenger" depart="560.11" departLane="best" departSpeed="max" from="E11" to="E1"/>
    <trip id="res_veh118" type="res_veh_passenger" depart="564.89" departLane="best" from="E5" to="E13"/>
    <trip id="res_veh119" type="res_veh_passenger" depart="569.68" departLane="best" departSpeed="max" from="E19" to="E22"/>
    <trip id="res_veh120" type="res_veh_passenger" depart="574.47" departLane="best" departSpeed="max" from="E16" to="E22"/>
    <trip id="res_veh123" type="res_veh_passenger" depart="588.83" departLane="best" departSpeed="max" from="E11" to="E17"/>
    <trip id="res_veh124" type="res_veh_passenger" depart="593.62" departLane="best" departSpeed="max" from="E23" to="E14"/>
    <trip id="res_veh131" type="res_veh_passenger" depart="627.13" departLane="best" departSpeed="max" from="E16" to="E10"/>
    <trip id="res_veh135" type="res_veh_passenger" depart="646.28" departLane="best" from="E5" to="E14"/>
    <trip id="res_veh139" type="res_veh_passenger" depart="665.43" departLane="best" departSpeed="max" from="E12" to="E22"/>
    <trip id="res_veh141" type="res_veh_passenger" depart="675.00" departLane="best" departSpeed="max" from="E21" to="E14"/>
    <trip id="res_veh143" type="res_veh_passenger" depart="684.57" departLane="best" from="E5" to="E1"/>
    <trip id="res_veh144" type="res_veh_passenger" depart="689.36" departLane="best" departSpeed="max" from="E16" to="E14"/>
    <trip id="res_veh146" type="res_veh_passenger" depart="698.94" departLane="best" departSpeed="max" from="E21" to="E14"/>
    <trip id="res_veh150" type="res_veh_passenger" depart="718.09" departLane="best" from="E5" to="E20"/>
    <trip id="res_veh151" type="res_veh_passenger" depart="722.87" departLane="best" from="E5" to="E22"/>
    <trip id="res_veh152" type="res_veh_passenger" depart="727.66" departLane="best" from="E10" to="E10"/>
    <trip id="res_veh155" type="res_veh_passenger" depart="742.02" departLane="best" from="E5" to="E13"/>
    <trip id="res_veh156" type="res_veh_passenger" depart="746.81" departLane="best" departSpeed="max" from="E11" to="E1"/>
    <trip id="res_veh158" type="res_veh_passenger" depart="756.38" departLane="best" departSpeed="max" from="E16" to="E22"/>
    <trip id="res_veh160" type="res_veh_passenger" depart="765.96" departLane="best" from="E5" to="E8"/>
    <trip id="res_veh167" type="res_veh_passenger" depart="799.47" departLane="best" from="E5" to="E6"/>
    <trip id="res_veh168" type="res_veh_passenger" depart="804.26" departLane="best" departSpeed="max" from="E11" to="E6"/>
    <trip id="res_veh174" type="res_veh_passenger" depart="832.98" departLane="best" departSpeed="max" from="E21" to="E17"/>
    <trip id="res_veh181" type="res_veh_passenger" depart="866.49" departLane="best" from="E2" to="E20"/>
    <trip id="res_veh182" type="res_veh_passenger" depart="871.28" departLane="best" departSpeed="max" from="E16" to="E22"/>
    <trip id="res_veh187" type="res_veh_passenger" depart="895.21" departLane="best" departSpeed="max" from="E16" to="E1"/>
    <trip id="res_veh192" type="res_veh_passenger" depart="919.15" departLane="best" departSpeed="max" from="E16" to="E14"/>
    <trip id="res_veh195" type="res_veh_passenger" depart="933.51" departLane="best" from="E5" to="E22"/>
    <trip id="res_veh197" type="res_veh_passenger" depart="943.09" departLane="best" from="E0" to="E14"/>
    <trip id="res_veh198" type="res_veh_passenger" depart="947.87" departLane="best" departSpeed="max" from="E16" to="E22"/>
    <trip id="res_veh200" type="res_veh_passenger" depart="957.45" departLane="best" departSpeed="max" from="E16" to="E13"/>
    <trip id="res_veh202" type="res_veh_passenger" depart="967.02" departLane="best" from="E4" to="E10"/>
    <trip id="res_veh205" type="res_veh_passenger" depart="981.38" departLane="best" from="E5" to="E5"/>
    <trip id="res_veh206" type="res_veh_passenger" depart="986.17" departLane="best" departSpeed="max" from="E23" to="E13"/>
    <trip id="res_veh208" type="res_veh_passenger" depart="995.74" departLane="best" departSpeed="max" from="E11" to="E2"/>
    <trip id="res_veh209" type="res_veh_passenger" depart="1000.53" departLane="best" from="E5" to="E1"/>
    <trip id="res_veh216" type="res_veh_passenger" depart="1034.04" departLane="best" departSpeed="max" from="E11" to="E8"/>
    <trip id="res_veh218" type="res_veh_passenger" depart="1043.62" departLane="best" departSpeed="max" from="E11" to="E6"/>
    <trip id="res_veh220" type="res_veh_passenger" depart="1053.19" departLane="best" departSpeed="max" from="E23" to="E8"/>
    <trip id="res_veh221" type="res_veh_passenger" depart="1057.98" departLane="best" departSpeed="max" from="E19" to="E8"/>
    <trip id="res_veh222" type="res_veh_passenger" depart="1062.77" departLane="best" from="E5" to="E22"/>
    <trip id="res_veh224" type="res_veh_passenger" depart="1072.34" departLane="best" from="E5" to="E20"/>
    <trip id="res_veh231" type="res_veh_passenger" depart="1105.85" departLane="best" departSpeed="max" from="E12" to="E15"/>
    <trip id="res_veh235" type="res_veh_passenger" depart="1125.00" departLane="best" departSpeed="max" from="E16" to="E20"/>
    <trip id="res_veh236" type="res_veh_passenger" depart="1129.79" departLane="best" departSpeed="max" from="E16" to="E13"/>
    <trip id="res_veh238" type="res_veh_passenger" depart="1139.36" departLane="best" departSpeed="max" from="E19" to="E4"/>
    <trip id="res_veh239" type="res_veh_passenger" depart="1144.15" departLane="best" from="E5" to="E5"/>
    <trip id="res_veh241" type="res_veh_passenger" depart="1153.72" departLane="best" departSpeed="max" from="E16" to="E5"/>
    <trip id="res_veh242" type="res_veh_passenger" depart="1158.51" departLane="best" from="E5" to="E8"/>
    <trip id="res_veh245" type="res_veh_passenger" depart="1172.87" departLane="best" departSpeed="max" from="E11" to="E13"/>
    <trip id="res_veh248" type="res_veh_passenger" depart="1187.23" departLane="best" departSpeed="max" from="E16" to="E10"/>
    <trip id="res_veh251" type="res_veh_passenger" depart="1201.60" departLane="best" departSpeed="max" from="E16" to="E22"/>
    <trip id="res_veh255" type="res_veh_passenger" depart="1220.74" departLane="best" departSpeed="max" from="E11" to="E15"/>
    <trip id="res_veh256" type="res_veh_passenger" depart="1225.53" departLane="best" from="E4" to="E17"/>
    <trip id="res_veh258" type="res_veh_passenger" depart="1235.11" departLane="best" departSpeed="max" from="E11" to="E1"/>
    <trip id="res_veh260" type="res_veh_passenger" depart="1244.68" departLane="best" departSpeed="max" from="E9" to="E15"/>
    <trip id="res_veh263" type="res_veh_passenger" depart="1259.04" departLane="best" from="E6" to="E13"/>
    <trip id="res_veh268" type="res_veh_passenger" depart="1282.98" departLane="best" departSpeed="max" from="E11" to="E22"/>
    <trip id="res_veh270" type="res_veh_passenger" depart="1292.55" departLane="best" from="E5" to="E8"/>
    <trip id="res_veh273" type="res_veh_passenger" depart="1306.91" departLane="best" from="E7" to="E17"/>
    <trip id="res_veh275" type="res_veh_passenger" depart="1316.49" departLane="best" from="E3" to="E3"/>
    <trip id="res_veh277" type="res_veh_passenger" depart="1326.06" departLane="best" from="E5" to="E22"/>
    <trip id="res_veh280" type="res_veh_passenger" depart="1340.43" departLane="best" departSpeed="max" from="E16" to="E15"/>
    <trip id="res_veh282" type="res_veh_passenger" depart="1350.00" departLane="best" from="E5" to="E6"/>
    <trip id="res_veh284" type="res_veh_passenger" depart="1359.57" departLane="best" departSpeed="max" from="E21" to="E6"/>
    <trip id="res_veh285" type="res_veh_passenger" depart="1364.36" departLane="best" from="E4" to="E17"/>
    <trip id="res_veh291" type="res_veh_passenger" depart="1393.09" departLane="best" from="E5" to="E1"/>
    <trip id="res_veh292" type="res_veh_passenger" depart="1397.87" departLane="best" from="E5" to="E13"/>
    <trip id="res_veh296" type="res_veh_passenger" depart="1417.02" departLane="best" departSpeed="max" from="E11" to="E5"/>
    <trip id="res_veh302" type="res_veh_passenger" depart="1445.74" departLane="best" from="E3" to="E3"/>
    <trip id="res_veh305" type="res_veh_passenger" depart="1460.11" departLane="best" from="E3" to="E14"/>
    <trip id="res_veh306" type="res_veh_passenger" depart="1464.89" departLane="best" departSpeed="max" from="E18" to="E2"/>
    <trip id="res_veh307" type="res_veh_passenger" depart="1469.68" departLane="best" from="E17" to="E17"/>
    <trip id="res_veh310" type="res_veh_passenger" depart="1484.04" departLane="best" departSpeed="max" from="E11" to="E1"/>
    <trip id="res_veh311" type="res_veh_passenger" depart="1488.83" departLane="best" departSpeed="max" from="E11" to="E1"/>
    <trip id="res_veh313" type="res_veh_passenger" depart="1498.40" departLane="best" departSpeed="max" from="E11" to="E13"/>
    <trip id="res_veh316" type="res_veh_passenger" depart="1512.77" departLane="best" departSpeed="max" from="E12" to="E1"/>
    <trip id="res_veh317" type="res_veh_passenger" depart="1517.55" departLane="best" departSpeed="max" from="E11" to="E13"/>
    <trip id="res_veh321" type="res_veh_passenger" depart="1536.70" departLane="best" from="E3" to="E10"/>
    <trip id="res_veh322" type="res_veh_passenger" depart="1541.49" departLane="best" from="E5" to="E2"/>
    <trip id="res_veh323" type="res_veh_passenger" depart="1546.28" departLane="best" from="E5" to="E22"/>
    <trip id="res_veh329" type="res_veh_passenger" depart="1575.00" departLane="best" from="E10" to="E10"/>
    <trip id="res_veh335" type="res_veh_passenger" depart="1603.72" departLane="best" departSpeed="max" from="E16" to="E6"/>
    <trip id="res_veh336" type="res_veh_passenger" depart="1608.51" departLane="best" departSpeed="max" from="E9" to="E14"/>
    <trip id="res_veh339" type="res_veh_passenger" depart="1622.87" departLane="best" departSpeed="max" from="E11" to="E13"/>
    <trip id="res_veh341" type="res_veh_passenger" depart="1632.45" departLane="best" departSpeed="max" from="E11" to="E1"/>
    <trip id="res_veh342" type="res_veh_passenger" depart="1637.23" departLane="best" from="E0" to="E2"/>
    <trip id="res_veh343" type="res_veh_passenger" depart="1642.02" departLane="best" departSpeed="max" from="E19" to="E14"/>
    <trip id="res_veh349" type="res_veh_passenger" depart="1670.74" departLane="best" departSpeed="max" from="E16" to="E20"/>
    <trip id="res_veh351" type="res_veh_passenger" depart="1680.32" departLane="best" from="E5" to="E1"/>
    <trip id="res_veh352" type="res_veh_passenger" depart="1685.11" departLane="best" departSpeed="max" from="E11" to="E14"/>
    <trip id="res_veh355" type="res_veh_passenger" depart="1699.47" departLane="best" from="E3" to="E4"/>
    <trip id="res_veh361" type="res_veh_passenger" depart="1728.19" departLane="best" from="E5" to="E22"/>
    <trip id="res_veh362" type="res_veh_passenger" depart="1732.98" departLane="best" from="E7" to="E8"/>
    <trip id="res_veh363" type="res_veh_passenger" depart="1737.77" departLane="best" departSpeed="max" from="E23" to="E14"/>
    <trip id="res_veh369" type="res_veh_passenger" depart="1766.49" departLane="best" departSpeed="max" from="E16" to="E15"/>
    <trip id="res_veh370" type="res_veh_passenger" depart="1771.28" departLane="best" departSpeed="max" from="E23" to="E6"/>
    <trip id="res_veh376" type="res_veh_passenger" depart="1800.00" departLane="best" departSpeed="max" from="E16" to="E20"/>
    <trip id="res_veh378" type="res_veh_passenger" depart="1809.57" departLane="best" from="E17" to="E17"/>
    <trip id="res_veh379" type="res_veh_passenger" depart="1814.36" departLane="best" departSpeed="max" from="E11" to="E15"/>
    <trip id="res_veh386" type="res_veh_passenger" depart="1847.87" departLane="best" departSpeed="max" from="E11" to="E20"/>
    <trip id="res_veh390" type="res_veh_passenger" depart="1867.02" departLane="best" from="E5" to="E2"/>
    <trip id="res_veh394" type="res_veh_passenger" depart="1886.17" departLane="best" from="E17" to="E17"/>
    <trip id="res_veh395" type="res_veh_passenger" depart="1890.96" departLane="best" from="E5" to="E20"/>
    <trip id="res_veh396" type="res_veh_passenger" depart="1895.74" departLane="best" from="E5" to="E6"/>
    <trip id="res_veh400" type="res_veh_passenger" depart="1914.89" departLane="best" departSpeed="max" from="E12" to="E14"/>
    <trip id="res_veh401" type="res_veh_passenger" depart="1919.68" departLane="best" departSpeed="max" from="E19" to="E8"/>
    <trip id="res_veh407" type="res_veh_passenger" depart="1948.40" departLane="best" departSpeed="max" from="E18" to="E13"/>
    <trip id="res_veh409" type="res_veh_passenger" depart="1957.98" departLane="best" from="E4" to="E4"/>
    <trip id="res_veh410" type="res_veh_passenger" depart="1962.77" departLane="best" from="E4" to="E17"/>
    <trip id="res_veh415" type="res_veh_passenger" depart="1986.70" departLane="best" from="E5" to="E2"/>
    <trip id="res_veh417" type="res_veh_passenger" depart="1996.28" departLane="best" from="E4" to="E17"/>
    <trip id="res_veh421" type="res_veh_passenger" depart="2015.43" departLane="best" departSpeed="max" from="E21" to="E6"/>
    <trip id="res_veh422" type="res_veh_passenger" depart="2020.21" departLane="best" from="E5" to="E6"/>
    <trip id="res_veh423" type="res_veh_passenger" depart="2025.00" departLane="best" departSpeed="max" from="E16" to="E15"/>
    <trip id="res_veh427" type="res_veh_passenger" depart="2044.15" departLane="best" from="E5" to="E8"/>
    <trip id="res_veh428" type="res_veh_passenger" depart="2048.94" departLane="best" from="E4" to="E17"/>
    <trip id="res_veh430" type="res_veh_passenger" depart="2058.51" departLane="best" from="E5" to="E2"/>
    <trip id="res_veh436" type="res_veh_passenger" depart="2087.23" departLane="best" departSpeed="max" from="E11" to="E1"/>
    <trip id="res_veh437" type="res_veh_passenger" depart="2092.02" departLane="best" from="E5" to="E22"/>
    <trip id="res_veh440" type="res_veh_passenger" depart="2106.38" departLane="best" departSpeed="max" from="E11" to="E14"/>
    <trip id="res_veh443" type="res_veh_passenger" depart="2120.74" departLane="best" departSpeed="max" from="E11" to="E2"/>
    <trip id="res_veh444" type="res_veh_passenger" depart="2125.53" departLane="best" departSpeed="max" from="E16" to="E22"/>
    <trip id="res_veh445" type="res_veh_passenger" depart="2130.32" departLane="best" departSpeed="max" from="E21" to="E17"/>
    <trip id="res_veh446" type="res_veh_passenger" depart="2135.11" departLane="best" departSpeed="max" from="E11" to="E6"/>
    <trip id="res_veh447" type="res_veh_passenger" depart="2139.89" departLane="best" departSpeed="max" from="E11" to="E17"/>
    <trip id="res_veh449" type="res_veh_passenger" depart="2149.47" departLane="best" departSpeed="max" from="E18" to="E22"/>
    <trip id="res_veh450" type="res_veh_passenger" depart="2154.26" departLane="best" departSpeed="max" from="E9" to="E14"/>
    <trip id="res_veh452" type="res_veh_passenger" depart="2163.83" departLane="best" departSpeed="max" from="E12" to="E22"/>
    <trip id="res_veh453" type="res_veh_passenger" depart="2168.62" departLane="best" from="E3" to="E4"/>
    <trip id="res_veh458" type="res_veh_passenger" depart="2192.55" departLane="best" departSpeed="max" from="E21" to="E22"/>
    <trip id="res_veh459" type="res_veh_passenger" depart="2197.34" departLane="best" departSpeed="max" from="E23" to="E4"/>
    <trip id="res_veh462" type="res_veh_passenger" depart="2211.70" departLane="best" departSpeed="max" from="E21" to="E14"/>
    <trip id="res_veh463" type="res_veh_passenger" depart="2216.49" departLane="best" departSpeed="max" from="E16" to="E22"/>
    <trip id="res_veh469" type="res_veh_passenger" depart="2245.21" departLane="best" from="E5" to="E14"/>
    <trip id="res_veh470" type="res_veh_passenger" depart="2250.00" departLane="best" from="E5" to="E2"/>
    <trip id="res_veh471" type="res_veh_passenger" depart="2254.79" departLane="best" from="E4" to="E4"/>
    <trip id="res_veh472" type="res_veh_passenger" depart="2259.57" departLane="best" departSpeed="max" from="E16" to="E1"/>
    <trip id="res_veh473" type="res_veh_passenger" depart="2264.36" departLane="best" from="E7" to="E10"/>
    <trip id="res_veh477" type="res_veh_passenger" depart="2283.51" departLane="best" departSpeed="max" from="E16" to="E5"/>
    <trip id="res_veh478" type="res_veh_passenger" depart="2288.30" departLane="best" from="E0" to="E20"/>
    <trip id="res_veh480" type="res_veh_passenger" depart="2297.87" departLane="best" departSpeed="max" from="E23" to="E22"/>
    <trip id="res_veh481" type="res_veh_passenger" depart="2302.66" departLane="best" from="E5" to="E8"/>
    <trip id="res_veh485" type="res_veh_passenger" depart="2321.81" departLane="best" departSpeed="max" from="E11" to="E1"/>
    <trip id="res_veh492" type="res_veh_passenger" depart="2355.32" departLane="best" departSpeed="max" from="E23" to="E4"/>
    <trip id="res_veh494" type="res_veh_passenger" depart="2364.89" departLane="best" from="E4" to="E10"/>
    <trip id="res_veh495" type="res_veh_passenger" depart="2369.68" departLane="best" departSpeed="max" from="E16" to="E1"/>
    <trip id="res_veh496" type="res_veh_passenger" depart="2374.47" departLane="best" from="E17" to="E17"/>
    <trip id="res_veh498" type="res_veh_passenger" depart="2384.04" departLane="best" departSpeed="max" from="E16" to="E2"/>
    <trip id="res_veh502" type="res_veh_passenger" depart="2403.19" departLane="best" departSpeed="max" from="E16" to="E17"/>
    <trip id="res_veh503" type="res_veh_passenger" depart="2407.98" departLane="best" departSpeed="max" from="E11" to="E1"/>
    <trip id="res_veh504" type="res_veh_passenger" depart="2412.77" departLane="best" from="E5" to="E2"/>
    <trip id="res_veh510" type="res_veh_passenger" depart="2441.49" departLane="best" departSpeed="max" from="E11" to="E13"/>
    <trip id="res_veh511" type="res_veh_passenger" depart="2446.28" departLane="best" from="E5" to="E15"/>
    <trip id="res_veh513" type="res_veh_passenger" depart="2455.85" departLane="best" from="E0" to="E6"/>
    <trip id="res_veh514" type="res_veh_passenger" depart="2460.64" departLane="best" from="E10" to="E10"/>
    <trip id="res_veh518" type="res_veh_passenger" depart="2479.79" departLane="best" departSpeed="max" from="E11" to="E15"/>
    <trip id="res_veh528" type="res_veh_passenger" depart="2527.66" departLane="best" from="E17" to="E17"/>
    <trip id="res_veh530" type="res_veh_passenger" depart="2537.23" departLane="best" from="E5" to="E1"/>
    <trip id="res_veh533" type="res_veh_passenger" depart="2551.60" departLane="best" from="E20" to="E20"/>
    <trip id="res_veh541" type="res_veh_passenger" depart="2589.89" departLane="best" departSpeed="max" from="E16" to="E2"/>
    <trip id="res_veh542" type="res_veh_passenger" depart="2594.68" departLane="best" departSpeed="max" from="E16" to="E1"/>
    <trip id="res_veh544" type="res_veh_passenger" depart="2604.26" departLane="best" departSpeed="max" from="E16" to="E10"/>
    <trip id="res_veh545" type="res_veh_passenger" depart="2609.04" departLane="best" from="E5" to="E1"/>
    <trip id="res_veh546" type="res_veh_passenger" depart="2613.83" departLane="best" from="E5" to="E1"/>
    <trip id="res_veh549" type="res_veh_passenger" depart="2628.19" departLane="best" departSpeed="max" from="E19" to="E20"/>
    <trip id="res_veh555" type="res_veh_passenger" depart="2656.91" departLane="best" departSpeed="max" from="E18" to="E13"/>
    <trip id="res_veh558" type="res_veh_passenger" depart="2671.28" departLane="best" departSpeed="max" from="E16" to="E5"/>
    <trip id="res_veh560" type="res_veh_passenger" depart="2680.85" departLane="best" from="E5" to="E8"/>
    <trip id="res_veh561" type="res_veh_passenger" depart="2685.64" departLane="best" from="E5" to="E22"/>
    <trip id="res_veh563" type="res_veh_passenger" depart="2695.21" departLane="best" from="E5" to="E6"/>
    <trip id="res_veh564" type="res_veh_passenger" depart="2700.00" departLane="best" departSpeed="max" from="E12" to="E10"/>
    <trip id="res_veh567" type="res_veh_passenger" depart="2714.36" departLane="best" from="E5" to="E22"/>
    <trip id="res_veh568" type="res_veh_passenger" depart="2719.15" departLane="best" departSpeed="max" from="E16" to="E10"/>
    <trip id="res_veh571" type="res_veh_passenger" depart="2733.51" departLane="best" departSpeed="max" from="E16" to="E15"/>
    <trip id="res_veh575" type="res_veh_passenger" depart="2752.66" departLane="best" departSpeed="max" from="E11" to="E22"/>
    <trip id="res_veh576" type="res_veh_passenger" depart="2757.45" departLane="best" departSpeed="max" from="E23" to="E14"/>
    <trip id="res_veh578" type="res_veh_passenger" depart="2767.02" departLane="best" departSpeed="max" from="E16" to="E14"/>
    <trip id="res_veh580" type="res_veh_passenger" depart="2776.60" departLane="best" departSpeed="max" from="E16" to="E14"/>
    <trip id="res_veh583" type="res_veh_passenger" depart="2790.96" departLane="best" departSpeed="max" from="E16" to="E22"/>
    <trip id="res_veh584" type="res_veh_passenger" depart="2795.74" departLane="best" from="E0" to="E14"/>
    <trip id="res_veh586" type="res_veh_passenger" depart="2805.32" departLane="best" departSpeed="max" from="E11" to="E15"/>
    <trip id="res_veh587" type="res_veh_passenger" depart="2810.11" departLane="best" from="E0" to="E4"/>
    <trip id="res_veh588" type="res_veh_passenger" depart="2814.89" departLane="best" departSpeed="max" from="E11" to="E17"/>
    <trip id="res_veh590" type="res_veh_passenger" depart="2824.47" departLane="best" from="E5" to="E5"/>
    <trip id="res_veh593" type="res_veh_passenger" depart="2838.83" departLane="best" from="E5" to="E6"/>