<?xml version="1.0" encoding="UTF-8"?>

<!-- generated on 2025-07-19 11:41:05.496866 by randomTrips.py v1_23_1+0000-676720d13f6
<configuration>
    <net-file value="osm.net.xml.gz"/>
    <weights-prefix value="res_motorcycle_overflow_west"/>
    <output-trip-file value="osm.res_motorcycle.trips.xml"/>
    <prefix value="res_motorcycle"/>
    <trip-attributes value="departLane='best'"/>
    <fringe-start-attributes value="departSpeed='max'"/>
    <edge-permission value="motorcycle"/>
    <remove-loops value="True"/>
    <validate value="True"/>
    <insertion-rate value="1500.0"/>
</configuration>
-->

<routes xmlns:xsi="http://www.w3.org/2001/XMLSchema-instance" xsi:noNamespaceSchemaLocation="http://sumo.dlr.de/xsd/routes_file.xsd">
    <trip id="res_motorcycle0" depart="0.00" from="E5" to="E1" departLane='best'/>
    <trip id="res_motorcycle1" depart="2.40" from="E11" to="E20" departLane='best' departSpeed='max'/>
    <trip id="res_motorcycle2" depart="4.80" from="E11" to="E22" departLane='best' departSpeed='max'/>
    <trip id="res_motorcycle3" depart="7.20" from="E4" to="E4" departLane='best'/>
    <trip id="res_motorcycle4" depart="9.60" from="E16" to="E10" departLane='best' departSpeed='max'/>
    <trip id="res_motorcycle5" depart="12.00" from="E7" to="E15" departLane='best'/>
    <trip id="res_motorcycle6" depart="14.40" from="E5" to="E22" departLane='best'/>
    <trip id="res_motorcycle7" depart="16.80" from="E4" to="E4" departLane='best'/>
    <trip id="res_motorcycle8" depart="19.20" from="E16" to="E20" departLane='best' departSpeed='max'/>
    <trip id="res_motorcycle9" depart="21.60" from="E5" to="E22" departLane='best'/>
    <trip id="res_motorcycle10" depart="24.00" from="E5" to="E22" departLane='best'/>
    <trip id="res_motorcycle11" depart="26.40" from="E11" to="E14" departLane='best' departSpeed='max'/>
    <trip id="res_motorcycle12" depart="28.80" from="E21" to="E15" departLane='best' departSpeed='max'/>
    <trip id="res_motorcycle13" depart="31.20" from="E16" to="E13" departLane='best' departSpeed='max'/>
    <trip id="res_motorcycle14" depart="33.60" from="E12" to="E7" departLane='best' departSpeed='max'/>
    <trip id="res_motorcycle15" depart="36.00" from="E21" to="E22" departLane='best' departSpeed='max'/>
    <trip id="res_motorcycle16" depart="38.40" from="E11" to="E17" departLane='best' departSpeed='max'/>
    <trip id="res_motorcycle17" depart="40.80" from="E5" to="E5" departLane='best'/>
    <trip id="res_motorcycle18" depart="43.20" from="E14" to="E14" departLane='best'/>
    <trip id="res_motorcycle19" depart="45.60" from="E11" to="E8" departLane='best' departSpeed='max'/>
    <trip id="res_motorcycle20" depart="48.00" from="E5" to="E15" departLane='best'/>
    <trip id="res_motorcycle21" depart="50.40" from="E5" to="E2" departLane='best'/>
    <trip id="res_motorcycle22" depart="52.80" from="E11" to="E13" departLane='best' departSpeed='max'/>
    <trip id="res_motorcycle23" depart="55.20" from="E19" to="E7" departLane='best' departSpeed='max'/>
    <trip id="res_motorcycle24" depart="57.60" from="E16" to="E13" departLane='best' departSpeed='max'/>
    <trip id="res_motorcycle25" depart="60.00" from="E9" to="E20" departLane='best' departSpeed='max'/>
    <trip id="res_motorcycle26" depart="62.40" from="E4" to="E17" departLane='best'/>
    <trip id="res_motorcycle27" depart="64.80" from="E9" to="E20" departLane='best' departSpeed='max'/>
    <trip id="res_motorcycle28" depart="67.20" from="E0" to="E4" departLane='best'/>
    <trip id="res_motorcycle29" depart="69.60" from="E23" to="E20" departLane='best' departSpeed='max'/>
    <trip id="res_motorcycle30" depart="72.00" from="E5" to="E14" departLane='best'/>
    <trip id="res_motorcycle31" depart="74.40" from="E5" to="E6" departLane='best'/>
    <trip id="res_motorcycle32" depart="76.80" from="E5" to="E6" departLane='best'/>
    <trip id="res_motorcycle33" depart="79.20" from="E5" to="E8" departLane='best'/>
    <trip id="res_motorcycle34" depart="81.60" from="E4" to="E10" departLane='best'/>
    <trip id="res_motorcycle35" depart="84.00" from="E11" to="E6" departLane='best' departSpeed='max'/>
    <trip id="res_motorcycle36" depart="86.40" from="E16" to="E13" departLane='best' departSpeed='max'/>
    <trip id="res_motorcycle37" depart="88.80" from="E11" to="E14" departLane='best' departSpeed='max'/>
    <trip id="res_motorcycle38" depart="91.20" from="E16" to="E20" departLane='best' departSpeed='max'/>
    <trip id="res_motorcycle39" depart="93.60" from="E16" to="E22" departLane='best' departSpeed='max'/>
    <trip id="res_motorcycle40" depart="96.00" from="E11" to="E13" departLane='best' departSpeed='max'/>
    <trip id="res_motorcycle41" depart="98.40" from="E5" to="E1" departLane='best'/>
    <trip id="res_motorcycle42" depart="100.80" from="E16" to="E2" departLane='best' departSpeed='max'/>
    <trip id="res_motorcycle43" depart="103.20" from="E16" to="E15" departLane='best' departSpeed='max'/>
    <trip id="res_motorcycle44" depart="105.60" from="E5" to="E13" departLane='best'/>
    <trip id="res_motorcycle45" depart="108.00" from="E11" to="E2" departLane='best' departSpeed='max'/>
    <trip id="res_motorcycle46" depart="110.40" from="E16" to="E14" departLane='best' departSpeed='max'/>
    <trip id="res_motorcycle47" depart="112.80" from="E16" to="E6" departLane='best' departSpeed='max'/>
    <trip id="res_motorcycle48" depart="115.20" from="E9" to="E6" departLane='best' departSpeed='max'/>
    <trip id="res_motorcycle49" depart="117.60" from="E16" to="E8" departLane='best' departSpeed='max'/>
    <trip id="res_motorcycle50" depart="120.00" from="E11" to="E5" departLane='best' departSpeed='max'/>
    <trip id="res_motorcycle51" depart="122.40" from="E17" to="E17" departLane='best'/>
    <trip id="res_motorcycle52" depart="124.80" from="E7" to="E8" departLane='best'/>
    <trip id="res_motorcycle53" depart="127.20" from="E11" to="E14" departLane='best' departSpeed='max'/>
    <trip id="res_motorcycle54" depart="129.60" from="E11" to="E8" departLane='best' departSpeed='max'/>
    <trip id="res_motorcycle55" depart="132.00" from="E10" to="E10" departLane='best'/>
    <trip id="res_motorcycle56" depart="134.40" from="E11" to="E1" departLane='best' departSpeed='max'/>
    <trip id="res_motorcycle57" depart="136.80" from="E5" to="E13" departLane='best'/>
    <trip id="res_motorcycle58" depart="139.20" from="E19" to="E22" departLane='best' departSpeed='max'/>
    <trip id="res_motorcycle59" depart="141.60" from="E16" to="E22" departLane='best' departSpeed='max'/>
    <trip id="res_motorcycle60" depart="144.00" from="E11" to="E17" departLane='best' departSpeed='max'/>
    <trip id="res_motorcycle61" depart="146.40" from="E23" to="E14" departLane='best' departSpeed='max'/>
    <trip id="res_motorcycle62" depart="148.80" from="E16" to="E10" departLane='best' departSpeed='max'/>
    <trip id="res_motorcycle63" depart="151.20" from="E5" to="E14" departLane='best'/>
    <trip id="res_motorcycle64" depart="153.60" from="E12" to="E22" departLane='best' departSpeed='max'/>
    <trip id="res_motorcycle65" depart="156.00" from="E21" to="E14" departLane='best' departSpeed='max'/>
    <trip id="res_motorcycle66" depart="158.40" from="E5" to="E1" departLane='best'/>
    <trip id="res_motorcycle67" depart="160.80" from="E16" to="E14" departLane='best' departSpeed='max'/>
    <trip id="res_motorcycle68" depart="163.20" from="E21" to="E14" departLane='best' departSpeed='max'/>
    <trip id="res_motorcycle69" depart="165.60" from="E5" to="E20" departLane='best'/>
    <trip id="res_motorcycle70" depart="168.00" from="E5" to="E22" departLane='best'/>
    <trip id="res_motorcycle71" depart="170.40" from="E10" to="E10" departLane='best'/>
    <trip id="res_motorcycle72" depart="172.80" from="E5" to="E13" departLane='best'/>
    <trip id="res_motorcycle73" depart="175.20" from="E11" to="E1" departLane='best' departSpeed='max'/>
    <trip id="res_motorcycle74" depart="177.60" from="E16" to="E22" departLane='best' departSpeed='max'/>
    <trip id="res_motorcycle75" depart="180.00" from="E5" to="E8" departLane='best'/>
    <trip id="res_motorcycle76" depart="182.40" from="E5" to="E6" departLane='best'/>
    <trip id="res_motorcycle77" depart="184.80" from="E11" to="E6" departLane='best' departSpeed='max'/>
    <trip id="res_motorcycle78" depart="187.20" from="E21" to="E17" departLane='best' departSpeed='max'/>
    <trip id="res_motorcycle79" depart="189.60" from="E2" to="E20" departLane='best'/>
    <trip id="res_motorcycle80" depart="192.00" from="E16" to="E22" departLane='best' departSpeed='max'/>
    <trip id="res_motorcycle81" depart="194.40" from="E16" to="E1" departLane='best' departSpeed='max'/>
    <trip id="res_motorcycle82" depart="196.80" from="E16" to="E14" departLane='best' departSpeed='max'/>
    <trip id="res_motorcycle83" depart="199.20" from="E5" to="E22" departLane='best'/>
    <trip id="res_motorcycle84" depart="201.60" from="E0" to="E14" departLane='best'/>
    <trip id="res_motorcycle85" depart="204.00" from="E16" to="E22" departLane='best' departSpeed='max'/>
    <trip id="res_motorcycle86" depart="206.40" from="E16" to="E13" departLane='best' departSpeed='max'/>
    <trip id="res_motorcycle87" depart="208.80" from="E4" to="E10" departLane='best'/>
    <trip id="res_motorcycle88" depart="211.20" from="E5" to="E5" departLane='best'/>
    <trip id="res_motorcycle89" depart="213.60" from="E23" to="E13" departLane='best' departSpeed='max'/>
    <trip id="res_motorcycle90" depart="216.00" from="E11" to="E2" departLane='best' departSpeed='max'/>
    <trip id="res_motorcycle91" depart="218.40" from="E5" to="E1" departLane='best'/>
    <trip id="res_motorcycle92" depart="220.80" from="E11" to="E8" departLane='best' departSpeed='max'/>
    <trip id="res_motorcycle93" depart="223.20" from="E11" to="E6" departLane='best' departSpeed='max'/>
    <trip id="res_motorcycle94" depart="225.60" from="E23" to="E8" departLane='best' departSpeed='max'/>
    <trip id="res_motorcycle95" depart="228.00" from="E19" to="E8" departLane='best' departSpeed='max'/>
    <trip id="res_motorcycle96" depart="230.40" from="E5" to="E22" departLane='best'/>
    <trip id="res_motorcycle97" depart="232.80" from="E5" to="E20" departLane='best'/>
    <trip id="res_motorcycle98" depart="235.20" from="E12" to="E15" departLane='best' departSpeed='max'/>
    <trip id="res_motorcycle99" depart="237.60" from="E16" to="E20" departLane='best' departSpeed='max'/>
    <trip id="res_motorcycle100" depart="240.00" from="E16" to="E13" departLane='best' departSpeed='max'/>
    <trip id="res_motorcycle101" depart="242.40" from="E19" to="E4" departLane='best' departSpeed='max'/>
    <trip id="res_motorcycle102" depart="244.80" from="E5" to="E5" departLane='best'/>
    <trip id="res_motorcycle103" depart="247.20" from="E16" to="E5" departLane='best' departSpeed='max'/>
    <trip id="res_motorcycle104" depart="249.60" from="E5" to="E8" departLane='best'/>
    <trip id="res_motorcycle105" depart="252.00" from="E11" to="E13" departLane='best' departSpeed='max'/>
    <trip id="res_motorcycle106" depart="254.40" from="E16" to="E10" departLane='best' departSpeed='max'/>
    <trip id="res_motorcycle107" depart="256.80" from="E16" to="E22" departLane='best' departSpeed='max'/>
    <trip id="res_motorcycle108" depart="259.20" from="E11" to="E15" departLane='best' departSpeed='max'/>
    <trip id="res_motorcycle109" depart="261.60" from="E4" to="E17" departLane='best'/>
    <trip id="res_motorcycle110" depart="264.00" from="E11" to="E1" departLane='best' departSpeed='max'/>
    <trip id="res_motorcycle111" depart="266.40" from="E9" to="E15" departLane='best' departSpeed='max'/>
    <trip id="res_motorcycle112" depart="268.80" from="E6" to="E13" departLane='best'/>
    <trip id="res_motorcycle113" depart="271.20" from="E11" to="E22" departLane='best' departSpeed='max'/>
    <trip id="res_motorcycle114" depart="273.60" from="E5" to="E8" departLane='best'/>
    <trip id="res_motorcycle115" depart="276.00" from="E7" to="E17" departLane='best'/>
    <trip id="res_motorcycle116" depart="278.40" from="E3" to="E3" departLane='best'/>
    <trip id="res_motorcycle117" depart="280.80" from="E5" to="E22" departLane='best'/>
    <trip id="res_motorcycle118" depart="283.20" from="E16" to="E15" departLane='best' departSpeed='max'/>
    <trip id="res_motorcycle119" depart="285.60" from="E5" to="E6" departLane='best'/>
    <trip id="res_motorcycle120" depart="288.00" from="E21" to="E6" departLane='best' departSpeed='max'/>
    <trip id="res_motorcycle121" depart="290.40" from="E4" to="E17" departLane='best'/>
    <trip id="res_motorcycle122" depart="292.80" from="E5" to="E1" departLane='best'/>
    <trip id="res_motorcycle123" depart="295.20" from="E5" to="E13" departLane='best'/>
    <trip id="res_motorcycle124" depart="297.60" from="E11" to="E5" departLane='best' departSpeed='max'/>
    <trip id="res_motorcycle125" depart="300.00" from="E3" to="E3" departLane='best'/>
    <trip id="res_motorcycle126" depart="302.40" from="E3" to="E14" departLane='best'/>
    <trip id="res_motorcycle127" depart="304.80" from="E18" to="E2" departLane='best' departSpeed='max'/>
    <trip id="res_motorcycle128" depart="307.20" from="E17" to="E17" departLane='best'/>
    <trip id="res_motorcycle129" depart="309.60" from="E11" to="E1" departLane='best' departSpeed='max'/>
    <trip id="res_motorcycle130" depart="312.00" from="E11" to="E1" departLane='best' departSpeed='max'/>
    <trip id="res_motorcycle131" depart="314.40" from="E11" to="E13" departLane='best' departSpeed='max'/>
    <trip id="res_motorcycle132" depart="316.80" from="E12" to="E1" departLane='best' departSpeed='max'/>
    <trip id="res_motorcycle133" depart="319.20" from="E11" to="E13" departLane='best' departSpeed='max'/>
    <trip id="res_motorcycle134" depart="321.60" from="E3" to="E10" departLane='best'/>
    <trip id="res_motorcycle135" depart="324.00" from="E5" to="E2" departLane='best'/>
    <trip id="res_motorcycle136" depart="326.40" from="E5" to="E22" departLane='best'/>
    <trip id="res_motorcycle137" depart="328.80" from="E10" to="E10" departLane='best'/>
    <trip id="res_motorcycle138" depart="331.20" from="E16" to="E6" departLane='best' departSpeed='max'/>
    <trip id="res_motorcycle139" depart="333.60" from="E9" to="E14" departLane='best' departSpeed='max'/>
    <trip id="res_motorcycle140" depart="336.00" from="E11" to="E13" departLane='best' departSpeed='max'/>
    <trip id="res_motorcycle141" depart="338.40" from="E11" to="E1" departLane='best' departSpeed='max'/>
    <trip id="res_motorcycle142" depart="340.80" from="E0" to="E2" departLane='best'/>
    <trip id="res_motorcycle143" depart="343.20" from="E19" to="E14" departLane='best' departSpeed='max'/>
    <trip id="res_motorcycle144" depart="345.60" from="E16" to="E20" departLane='best' departSpeed='max'/>
    <trip id="res_motorcycle145" depart="348.00" from="E5" to="E1" departLane='best'/>
    <trip id="res_motorcycle146" depart="350.40" from="E11" to="E14" departLane='best' departSpeed='max'/>
    <trip id="res_motorcycle147" depart="352.80" from="E3" to="E4" departLane='best'/>
    <trip id="res_motorcycle148" depart="355.20" from="E5" to="E22" departLane='best'/>
    <trip id="res_motorcycle149" depart="357.60" from="E7" to="E8" departLane='best'/>
    <trip id="res_motorcycle150" depart="360.00" from="E23" to="E14" departLane='best' departSpeed='max'/>
    <trip id="res_motorcycle151" depart="362.40" from="E16" to="E15" departLane='best' departSpeed='max'/>
    <trip id="res_motorcycle152" depart="364.80" from="E23" to="E6" departLane='best' departSpeed='max'/>
    <trip id="res_motorcycle153" depart="367.20" from="E16" to="E20" departLane='best' departSpeed='max'/>
    <trip id="res_motorcycle154" depart="369.60" from="E17" to="E17" departLane='best'/>
    <trip id="res_motorcycle155" depart="372.00" from="E11" to="E15" departLane='best' departSpeed='max'/>
    <trip id="res_motorcycle156" depart="374.40" from="E11" to="E20" departLane='best' departSpeed='max'/>
    <trip id="res_motorcycle157" depart="376.80" from="E5" to="E2" departLane='best'/>
    <trip id="res_motorcycle158" depart="379.20" from="E17" to="E17" departLane='best'/>
    <trip id="res_motorcycle159" depart="381.60" from="E5" to="E20" departLane='best'/>
    <trip id="res_motorcycle160" depart="384.00" from="E5" to="E6" departLane='best'/>
    <trip id="res_motorcycle161" depart="386.40" from="E12" to="E14" departLane='best' departSpeed='max'/>
    <trip id="res_motorcycle162" depart="388.80" from="E19" to="E8" departLane='best' departSpeed='max'/>
    <trip id="res_motorcycle163" depart="391.20" from="E18" to="E13" departLane='best' departSpeed='max'/>
    <trip id="res_motorcycle164" depart="393.60" from="E4" to="E4" departLane='best'/>
    <trip id="res_motorcycle165" depart="396.00" from="E4" to="E17" departLane='best'/>
    <trip id="res_motorcycle166" depart="398.40" from="E5" to="E2" departLane='best'/>
    <trip id="res_motorcycle167" depart="400.80" from="E4" to="E17" departLane='best'/>
    <trip id="res_motorcycle168" depart="403.20" from="E21" to="E6" departLane='best' departSpeed='max'/>
    <trip id="res_motorcycle169" depart="405.60" from="E5" to="E6" departLane='best'/>
    <trip id="res_motorcycle170" depart="408.00" from="E16" to="E15" departLane='best' departSpeed='max'/>
    <trip id="res_motorcycle171" depart="410.40" from="E5" to="E8" departLane='best'/>
    <trip id="res_motorcycle172" depart="412.80" from="E4" to="E17" departLane='best'/>
    <trip id="res_motorcycle173" depart="415.20" from="E5" to="E2" departLane='best'/>
    <trip id="res_motorcycle174" depart="417.60" from="E11" to="E1" departLane='best' departSpeed='max'/>
    <trip id="res_motorcycle175" depart="420.00" from="E5" to="E22" departLane='best'/>
    <trip id="res_motorcycle176" depart="422.40" from="E11" to="E14" departLane='best' departSpeed='max'/>
    <trip id="res_motorcycle177" depart="424.80" from="E11" to="E2" departLane='best' departSpeed='max'/>
    <trip id="res_motorcycle178" depart="427.20" from="E16" to="E22" departLane='best' departSpeed='max'/>
    <trip id="res_motorcycle179" depart="429.60" from="E21" to="E17" departLane='best' departSpeed='max'/>
    <trip id="res_motorcycle180" depart="432.00" from="E11" to="E6" departLane='best' departSpeed='max'/>
    <trip id="res_motorcycle181" depart="434.40" from="E11" to="E17" departLane='best' departSpeed='max'/>
    <trip id="res_motorcycle182" depart="436.80" from="E18" to="E22" departLane='best' departSpeed='max'/>
    <trip id="res_motorcycle183" depart="439.20" from="E9" to="E14" departLane='best' departSpeed='max'/>
    <trip id="res_motorcycle184" depart="441.60" from="E12" to="E22" departLane='best' departSpeed='max'/>
    <trip id="res_motorcycle185" depart="444.00" from="E3" to="E4" departLane='best'/>
    <trip id="res_motorcycle186" depart="446.40" from="E21" to="E22" departLane='best' departSpeed='max'/>
    <trip id="res_motorcycle187" depart="448.80" from="E23" to="E4" departLane='best' departSpeed='max'/>
    <trip id="res_motorcycle188" depart="451.20" from="E21" to="E14" departLane='best' departSpeed='max'/>
    <trip id="res_motorcycle189" depart="453.60" from="E16" to="E22" departLane='best' departSpeed='max'/>
    <trip id="res_motorcycle190" depart="456.00" from="E5" to="E14" departLane='best'/>
    <trip id="res_motorcycle191" depart="458.40" from="E5" to="E2" departLane='best'/>
    <trip id="res_motorcycle192" depart="460.80" from="E4" to="E4" departLane='best'/>
    <trip id="res_motorcycle193" depart="463.20" from="E16" to="E1" departLane='best' departSpeed='max'/>
    <trip id="res_motorcycle194" depart="465.60" from="E7" to="E10" departLane='best'/>
    <trip id="res_motorcycle195" depart="468.00" from="E16" to="E5" departLane='best' departSpeed='max'/>
    <trip id="res_motorcycle196" depart="470.40" from="E0" to="E20" departLane='best'/>
    <trip id="res_motorcycle197" depart="472.80" from="E23" to="E22" departLane='best' departSpeed='max'/>
    <trip id="res_motorcycle198" depart="475.20" from="E5" to="E8" departLane='best'/>
    <trip id="res_motorcycle199" depart="477.60" from="E11" to="E1" departLane='best' departSpeed='max'/>
    <trip id="res_motorcycle200" depart="480.00" from="E23" to="E4" departLane='best' departSpeed='max'/>
    <trip id="res_motorcycle201" depart="482.40" from="E4" to="E10" departLane='best'/>
    <trip id="res_motorcycle202" depart="484.80" from="E16" to="E1" departLane='best' departSpeed='max'/>
    <trip id="res_motorcycle203" depart="487.20" from="E17" to="E17" departLane='best'/>
    <trip id="res_motorcycle204" depart="489.60" from="E16" to="E2" departLane='best' departSpeed='max'/>
    <trip id="res_motorcycle205" depart="492.00" from="E16" to="E17" departLane='best' departSpeed='max'/>
    <trip id="res_motorcycle206" depart="494.40" from="E11" to="E1" departLane='best' departSpeed='max'/>
    <trip id="res_motorcycle207" depart="496.80" from="E5" to="E2" departLane='best'/>
    <trip id="res_motorcycle208" depart="499.20" from="E11" to="E13" departLane='best' departSpeed='max'/>
    <trip id="res_motorcycle209" depart="501.60" from="E5" to="E15" departLane='best'/>
    <trip id="res_motorcycle210" depart="504.00" from="E0" to="E6" departLane='best'/>
    <trip id="res_motorcycle211" depart="506.40" from="E10" to="E10" departLane='best'/>
    <trip id="res_motorcycle212" depart="508.80" from="E11" to="E15" departLane='best' departSpeed='max'/>
    <trip id="res_motorcycle213" depart="511.20" from="E17" to="E17" departLane='best'/>
    <trip id="res_motorcycle214" depart="513.60" from="E5" to="E1" departLane='best'/>
    <trip id="res_motorcycle215" depart="516.00" from="E20" to="E20" departLane='best'/>
    <trip id="res_motorcycle216" depart="518.40" from="E16" to="E2" departLane='best' departSpeed='max'/>
    <trip id="res_motorcycle217" depart="520.80" from="E16" to="E1" departLane='best' departSpeed='max'/>
    <trip id="res_motorcycle218" depart="523.20" from="E16" to="E10" departLane='best' departSpeed='max'/>
    <trip id="res_motorcycle219" depart="525.60" from="E5" to="E1" departLane='best'/>
    <trip id="res_motorcycle220" depart="528.00" from="E5" to="E1" departLane='best'/>
    <trip id="res_motorcycle221" depart="530.40" from="E19" to="E20" departLane='best' departSpeed='max'/>
    <trip id="res_motorcycle222" depart="532.80" from="E18" to="E13" departLane='best' departSpeed='max'/>
    <trip id="res_motorcycle223" depart="535.20" from="E16" to="E5" departLane='best' departSpeed='max'/>
    <trip id="res_motorcycle224" depart="537.60" from="E5" to="E8" departLane='best'/>
    <trip id="res_motorcycle225" depart="540.00" from="E5" to="E22" departLane='best'/>
    <trip id="res_motorcycle226" depart="542.40" from="E5" to="E6" departLane='best'/>
    <trip id="res_motorcycle227" depart="544.80" from="E12" to="E10" departLane='best' departSpeed='max'/>
    <trip id="res_motorcycle228" depart="547.20" from="E5" to="E22" departLane='best'/>
    <trip id="res_motorcycle229" depart="549.60" from="E16" to="E10" departLane='best' departSpeed='max'/>
    <trip id="res_motorcycle230" depart="552.00" from="E16" to="E15" departLane='best' departSpeed='max'/>
    <trip id="res_motorcycle231" depart="554.40" from="E11" to="E22" departLane='best' departSpeed='max'/>
    <trip id="res_motorcycle232" depart="556.80" from="E23" to="E14" departLane='best' departSpeed='max'/>
    <trip id="res_motorcycle233" depart="559.20" from="E16" to="E14" departLane='best' departSpeed='max'/>
    <trip id="res_motorcycle234" depart="561.60" from="E16" to="E14" departLane='best' departSpeed='max'/>
    <trip id="res_motorcycle235" depart="564.00" from="E16" to="E22" departLane='best' departSpeed='max'/>
    <trip id="res_motorcycle236" depart="566.40" from="E0" to="E14" departLane='best'/>
    <trip id="res_motorcycle237" depart="568.80" from="E11" to="E15" departLane='best' departSpeed='max'/>
    <trip id="res_motorcycle238" depart="571.20" from="E0" to="E4" departLane='best'/>
    <trip id="res_motorcycle239" depart="573.60" from="E11" to="E17" departLane='best' departSpeed='max'/>
    <trip id="res_motorcycle240" depart="576.00" from="E5" to="E5" departLane='best'/>
    <trip id="res_motorcycle241" depart="578.40" from="E5" to="E6" departLane='best'/>
    <trip id="res_motorcycle242" depart="580.80" from="E18" to="E22" departLane='best' departSpeed='max'/>
    <trip id="res_motorcycle243" depart="583.20" from="E4" to="E17" departLane='best'/>
    <trip id="res_motorcycle244" depart="585.60" from="E5" to="E1" departLane='best'/>
    <trip id="res_motorcycle245" depart="588.00" from="E5" to="E13" departLane='best'/>
    <trip id="res_motorcycle246" depart="590.40" from="E19" to="E20" departLane='best' departSpeed='max'/>
    <trip id="res_motorcycle247" depart="592.80" from="E16" to="E14" departLane='best' departSpeed='max'/>
    <trip id="res_motorcycle248" depart="595.20" from="E16" to="E15" departLane='best' departSpeed='max'/>
    <trip id="res_motorcycle249" depart="597.60" from="E11" to="E20" departLane='best' departSpeed='max'/>
    <trip id="res_motorcycle250" depart="600.00" from="E5" to="E15" departLane='best'/>
    <trip id="res_motorcycle251" depart="602.40" from="E14" to="E14" departLane='best'/>
    <trip id="res_motorcycle252" depart="604.80" from="E5" to="E22" departLane='best'/>
    <trip id="res_motorcycle253" depart="607.20" from="E5" to="E2" departLane='best'/>
    <trip id="res_motorcycle254" depart="609.60" from="E11" to="E2" departLane='best' departSpeed='max'/>
    <trip id="res_motorcycle255" depart="612.00" from="E16" to="E20" departLane='best' departSpeed='max'/>
    <trip id="res_motorcycle256" depart="614.40" from="E11" to="E15" departLane='best' departSpeed='max'/>
    <trip id="res_motorcycle257" depart="616.80" from="E12" to="E17" departLane='best' departSpeed='max'/>
    <trip id="res_motorcycle258" depart="619.20" from="E16" to="E22" departLane='best' departSpeed='max'/>
    <trip id="res_motorcycle259" depart="621.60" from="E23" to="E14" departLane='best' departSpeed='max'/>
    <trip id="res_motorcycle260" depart="624.00" from="E5" to="E6" departLane='best'/>
    <trip id="res_motorcycle261" depart="626.40" from="E16" to="E22" departLane='best' departSpeed='max'/>
    <trip id="res_motorcycle262" depart="628.80" from="E16" to="E22" departLane='best' departSpeed='max'/>
    <trip id="res_motorcycle263" depart="631.20" from="E6" to="E14" departLane='best'/>
    <trip id="res_motorcycle264" depart="633.60" from="E16" to="E5" departLane='best' departSpeed='max'/>
    <trip id="res_motorcycle265" depart="636.00" from="E21" to="E17" departLane='best' departSpeed='max'/>
    <trip id="res_motorcycle266" depart="638.40" from="E16" to="E15" departLane='best' departSpeed='max'/>
    <trip id="res_motorcycle267" depart="640.80" from="E11" to="E13" departLane='best' departSpeed='max'/>
    <trip id="res_motorcycle268" depart="643.20" from="E4" to="E10" departLane='best'/>
    <trip id="res_motorcycle269" depart="645.60" from="E16" to="E10" departLane='best' departSpeed='max'/>
    <trip id="res_motorcycle270" depart="648.00" from="E5" to="E5" departLane='best'/>
    <trip id="res_motorcycle271" depart="650.40" from="E4" to="E10" departLane='best'/>
    <trip id="res_motorcycle272" depart="652.80" from="E16" to="E17" departLane='best' departSpeed='max'/>
    <trip id="res_motorcycle273" depart="655.20" from="E23" to="E13" departLane='best' departSpeed='max'/>
    <trip id="res_motorcycle274" depart="657.60" from="E16" to="E14" departLane='best' departSpeed='max'/>
    <trip id="res_motorcycle275" depart="660.00" from="E5" to="E15" departLane='best'/>
    <trip id="res_motorcycle276" depart="662.40" from="E16" to="E20" departLane='best' departSpeed='max'/>
    <trip id="res_motorcycle277" depart="664.80" from="E4" to="E10" departLane='best'/>
    <trip id="res_motorcycle278" depart="667.20" from="E5" to="E20" departLane='best'/>
    <trip id="res_motorcycle279" depart="669.60" from="E5" to="E14" departLane='best'/>
    <trip id="res_motorcycle280" depart="672.00" from="E16" to="E8" departLane='best' departSpeed='max'/>
    <trip id="res_motorcycle281" depart="674.40" from="E11" to="E2" departLane='best' departSpeed='max'/>
    <trip id="res_motorcycle282" depart="676.80" from="E11" to="E8" departLane='best' departSpeed='max'/>
    <trip id="res_motorcycle283" depart="679.20" from="E5" to="E6" departLane='best'/>
    <trip id="res_motorcycle284" depart="681.60" from="E5" to="E20" departLane='best'/>
    <trip id="res_motorcycle285" depart="684.00" from="E16" to="E5" departLane='best' departSpeed='max'/>
    <trip id="res_motorcycle286" depart="686.40" from="E5" to="E22" departLane='best'/>
    <trip id="res_motorcycle287" depart="688.80" from="E0" to="E20" departLane='best'/>
    <trip id="res_motorcycle288" depart="691.20" from="E16" to="E22" departLane='best' departSpeed='max'/>
    <trip id="res_motorcycle289" depart="693.60" from="E11" to="E17" departLane='best' departSpeed='max'/>
    <trip id="res_motorcycle290" depart="696.00" from="E9" to="E20" departLane='best' departSpeed='max'/>
    <trip id="res_motorcycle291" depart="698.40" from="E16" to="E2" departLane='best' departSpeed='max'/>
    <trip id="res_motorcycle292" depart="700.80" from="E21" to="E8" departLane='best' departSpeed='max'/>
    <trip id="res_motorcycle293" depart="703.20" from="E4" to="E4" departLane='best'/>
    <trip id="res_motorcycle294" depart="705.60" from="E11" to="E5" departLane='best' departSpeed='max'/>
    <trip id="res_motorcycle295" depart="708.00" from="E16" to="E5" departLane='best' departSpeed='max'/>
    <trip id="res_motorcycle296" depart="710.40" from="E5" to="E15" departLane='best'/>
    <trip id="res_motorcycle297" depart="712.80" from="E5" to="E15" departLane='best'/>