<?xml version="1.0" encoding="UTF-8"?>

<!-- generated on 2025-07-21 09:25:26.287581 by randomTrips.py v1_22_0+0002-63e50f52594
<configuration>
    <net-file value="osm.net.xml.gz"/>
    <weights-prefix value="res_motorcycle_overflow_west"/>
    <output-trip-file value="osm.res_motorcycle.trips.xml"/>
    <prefix value="res_motorcycle"/>
    <trip-attributes value="departLane='best'"/>
    <fringe-start-attributes value="departSpeed='max'"/>
    <vehicle-class value="motorcycle"/>
    <vclass value="motorcycle"/>
    <remove-loops value="True"/>
    <validate value="True"/>
    <insertion-rate value="3000.0"/>
</configuration>
-->

<!-- generated on 2025-07-21 09:25:26 by Eclipse SUMO duarouter Version 1.22.0
<duarouterConfiguration xmlns:xsi="http://www.w3.org/2001/XMLSchema-instance" xsi:noNamespaceSchemaLocation="http://sumo.dlr.de/xsd/duarouterConfiguration.xsd">

    <input>
        <net-file value="osm.net.xml.gz"/>
        <route-files value="osm.res_motorcycle.trips.xml"/>
    </input>

    <output>
        <output-file value="osm.res_motorcycle.trips.xml.tmp"/>
        <alternatives-output value="NUL"/>
        <write-trips value="true"/>
    </output>

    <processing>
        <remove-loops value="true"/>
    </processing>

    <time>
        <begin value="0.0"/>
        <end value="3600.0"/>
    </time>

    <report>
        <no-warnings value="true"/>
        <ignore-errors value="true"/>
        <no-step-log value="true"/>
    </report>

</duarouterConfiguration>
-->

<routes xmlns:xsi="http://www.w3.org/2001/XMLSchema-instance" xsi:noNamespaceSchemaLocation="http://sumo.dlr.de/xsd/routes_file.xsd">
    <vType id="res_motorcycle_motorcycle" vClass="motorcycle"/>
    <trip id="res_motorcycle3" type="res_motorcycle_motorcycle" depart="3.60" departLane="best" from="E5" to="E1"/>
    <trip id="res_motorcycle5" type="res_motorcycle_motorcycle" depart="6.00" departLane="best" departSpeed="max" from="E11" to="E20"/>
    <trip id="res_motorcycle8" type="res_motorcycle_motorcycle" depart="9.60" departLane="best" departSpeed="max" from="E11" to="E22"/>
    <trip id="res_motorcycle10" type="res_motorcycle_motorcycle" depart="12.00" departLane="best" from="E4" to="E4"/>
    <trip id="res_motorcycle11" type="res_motorcycle_motorcycle" depart="13.20" departLane="best" departSpeed="max" from="E16" to="E10"/>
    <trip id="res_motorcycle12" type="res_motorcycle_motorcycle" depart="14.40" departLane="best" from="E7" to="E15"/>
    <trip id="res_motorcycle14" type="res_motorcycle_motorcycle" depart="16.80" departLane="best" from="E5" to="E22"/>
    <trip id="res_motorcycle15" type="res_motorcycle_motorcycle" depart="18.00" departLane="best" from="E4" to="E4"/>
    <trip id="res_motorcycle17" type="res_motorcycle_motorcycle" depart="20.40" departLane="best" departSpeed="max" from="E16" to="E20"/>
    <trip id="res_motorcycle18" type="res_motorcycle_motorcycle" depart="21.60" departLane="best" from="E5" to="E22"/>
    <trip id="res_motorcycle19" type="res_motorcycle_motorcycle" depart="22.80" departLane="best" from="E5" to="E22"/>
    <trip id="res_motorcycle21" type="res_motorcycle_motorcycle" depart="25.20" departLane="best" departSpeed="max" from="E11" to="E14"/>
    <trip id="res_motorcycle24" type="res_motorcycle_motorcycle" depart="28.80" departLane="best" departSpeed="max" from="E21" to="E15"/>
    <trip id="res_motorcycle25" type="res_motorcycle_motorcycle" depart="30.00" departLane="best" departSpeed="max" from="E16" to="E13"/>
    <trip id="res_motorcycle26" type="res_motorcycle_motorcycle" depart="31.20" departLane="best" departSpeed="max" from="E12" to="E7"/>
    <trip id="res_motorcycle27" type="res_motorcycle_motorcycle" depart="32.40" departLane="best" departSpeed="max" from="E21" to="E22"/>
    <trip id="res_motorcycle29" type="res_motorcycle_motorcycle" depart="34.80" departLane="best" departSpeed="max" from="E11" to="E17"/>
    <trip id="res_motorcycle32" type="res_motorcycle_motorcycle" depart="38.40" departLane="best" from="E5" to="E5"/>
    <trip id="res_motorcycle34" type="res_motorcycle_motorcycle" depart="40.80" departLane="best" from="E14" to="E14"/>
    <trip id="res_motorcycle35" type="res_motorcycle_motorcycle" depart="42.00" departLane="best" departSpeed="max" from="E11" to="E8"/>
    <trip id="res_motorcycle36" type="res_motorcycle_motorcycle" depart="43.20" departLane="best" from="E5" to="E15"/>
    <trip id="res_motorcycle38" type="res_motorcycle_motorcycle" depart="45.60" departLane="best" from="E5" to="E2"/>
    <trip id="res_motorcycle39" type="res_motorcycle_motorcycle" depart="46.80" departLane="best" departSpeed="max" from="E11" to="E13"/>
    <trip id="res_motorcycle41" type="res_motorcycle_motorcycle" depart="49.20" departLane="best" departSpeed="max" from="E19" to="E7"/>
    <trip id="res_motorcycle42" type="res_motorcycle_motorcycle" depart="50.40" departLane="best" departSpeed="max" from="E16" to="E13"/>
    <trip id="res_motorcycle43" type="res_motorcycle_motorcycle" depart="51.60" departLane="best" departSpeed="max" from="E9" to="E20"/>
    <trip id="res_motorcycle46" type="res_motorcycle_motorcycle" depart="55.20" departLane="best" from="E4" to="E17"/>
    <trip id="res_motorcycle48" type="res_motorcycle_motorcycle" depart="57.60" departLane="best" departSpeed="max" from="E9" to="E20"/>
    <trip id="res_motorcycle50" type="res_motorcycle_motorcycle" depart="60.00" departLane="best" from="E0" to="E4"/>
    <trip id="res_motorcycle51" type="res_motorcycle_motorcycle" depart="61.20" departLane="best" departSpeed="max" from="E23" to="E20"/>
    <trip id="res_motorcycle55" type="res_motorcycle_motorcycle" depart="66.00" departLane="best" from="E5" to="E14"/>
    <trip id="res_motorcycle57" type="res_motorcycle_motorcycle" depart="68.40" departLane="best" from="E5" to="E6"/>
    <trip id="res_motorcycle64" type="res_motorcycle_motorcycle" depart="76.80" departLane="best" from="E5" to="E6"/>
    <trip id="res_motorcycle66" type="res_motorcycle_motorcycle" depart="79.20" departLane="best" from="E5" to="E8"/>
    <trip id="res_motorcycle69" type="res_motorcycle_motorcycle" depart="82.80" departLane="best" from="E4" to="E10"/>
    <trip id="res_motorcycle71" type="res_motorcycle_motorcycle" depart="85.20" departLane="best" departSpeed="max" from="E11" to="E6"/>
    <trip id="res_motorcycle72" type="res_motorcycle_motorcycle" depart="86.40" departLane="best" departSpeed="max" from="E16" to="E13"/>
    <trip id="res_motorcycle74" type="res_motorcycle_motorcycle" depart="88.80" departLane="best" departSpeed="max" from="E11" to="E14"/>
    <trip id="res_motorcycle76" type="res_motorcycle_motorcycle" depart="91.20" departLane="best" departSpeed="max" from="E16" to="E20"/>
    <trip id="res_motorcycle78" type="res_motorcycle_motorcycle" depart="93.60" departLane="best" departSpeed="max" from="E16" to="E22"/>
    <trip id="res_motorcycle79" type="res_motorcycle_motorcycle" depart="94.80" departLane="best" departSpeed="max" from="E11" to="E13"/>
    <trip id="res_motorcycle82" type="res_motorcycle_motorcycle" depart="98.40" departLane="best" from="E5" to="E1"/>
    <trip id="res_motorcycle89" type="res_motorcycle_motorcycle" depart="106.80" departLane="best" departSpeed="max" from="E16" to="E2"/>
    <trip id="res_motorcycle92" type="res_motorcycle_motorcycle" depart="110.40" departLane="best" departSpeed="max" from="E16" to="E15"/>
    <trip id="res_motorcycle93" type="res_motorcycle_motorcycle" depart="111.60" departLane="best" from="E5" to="E13"/>
    <trip id="res_motorcycle94" type="res_motorcycle_motorcycle" depart="112.80" departLane="best" departSpeed="max" from="E11" to="E2"/>
    <trip id="res_motorcycle95" type="res_motorcycle_motorcycle" depart="114.00" departLane="best" departSpeed="max" from="E16" to="E14"/>
    <trip id="res_motorcycle97" type="res_motorcycle_motorcycle" depart="116.40" departLane="best" departSpeed="max" from="E16" to="E6"/>
    <trip id="res_motorcycle99" type="res_motorcycle_motorcycle" depart="118.80" departLane="best" departSpeed="max" from="E9" to="E6"/>
    <trip id="res_motorcycle104" type="res_motorcycle_motorcycle" depart="124.80" departLane="best" departSpeed="max" from="E16" to="E8"/>
    <trip id="res_motorcycle105" type="res_motorcycle_motorcycle" depart="126.00" departLane="best" departSpeed="max" from="E11" to="E5"/>
    <trip id="res_motorcycle106" type="res_motorcycle_motorcycle" depart="127.20" departLane="best" from="E17" to="E17"/>
    <trip id="res_motorcycle107" type="res_motorcycle_motorcycle" depart="128.40" departLane="best" from="E7" to="E8"/>
    <trip id="res_motorcycle109" type="res_motorcycle_motorcycle" depart="130.80" departLane="best" departSpeed="max" from="E11" to="E14"/>
    <trip id="res_motorcycle114" type="res_motorcycle_motorcycle" depart="136.80" departLane="best" departSpeed="max" from="E11" to="E8"/>
    <trip id="res_motorcycle115" type="res_motorcycle_motorcycle" depart="138.00" departLane="best" from="E10" to="E10"/>
    <trip id="res_motorcycle117" type="res_motorcycle_motorcycle" depart="140.40" departLane="best" departSpeed="max" from="E11" to="E1"/>
    <trip id="res_motorcycle118" type="res_motorcycle_motorcycle" depart="141.60" departLane="best" from="E5" to="E13"/>
    <trip id="res_motorcycle119" type="res_motorcycle_motorcycle" depart="142.80" departLane="best" departSpeed="max" from="E19" to="E22"/>
    <trip id="res_motorcycle120" type="res_motorcycle_motorcycle" depart="144.00" departLane="best" departSpeed="max" from="E16" to="E22"/>
    <trip id="res_motorcycle123" type="res_motorcycle_motorcycle" depart="147.60" departLane="best" departSpeed="max" from="E11" to="E17"/>
    <trip id="res_motorcycle124" type="res_motorcycle_motorcycle" depart="148.80" departLane="best" departSpeed="max" from="E23" to="E14"/>
    <trip id="res_motorcycle131" type="res_motorcycle_motorcycle" depart="157.20" departLane="best" departSpeed="max" from="E16" to="E10"/>
    <trip id="res_motorcycle135" type="res_motorcycle_motorcycle" depart="162.00" departLane="best" from="E5" to="E14"/>
    <trip id="res_motorcycle139" type="res_motorcycle_motorcycle" depart="166.80" departLane="best" departSpeed="max" from="E12" to="E22"/>
    <trip id="res_motorcycle141" type="res_motorcycle_motorcycle" depart="169.20" departLane="best" departSpeed="max" from="E21" to="E14"/>
    <trip id="res_motorcycle143" type="res_motorcycle_motorcycle" depart="171.60" departLane="best" from="E5" to="E1"/>
    <trip id="res_motorcycle144" type="res_motorcycle_motorcycle" depart="172.80" departLane="best" departSpeed="max" from="E16" to="E14"/>
    <trip id="res_motorcycle146" type="res_motorcycle_motorcycle" depart="175.20" departLane="best" departSpeed="max" from="E21" to="E14"/>
    <trip id="res_motorcycle150" type="res_motorcycle_motorcycle" depart="180.00" departLane="best" from="E5" to="E20"/>
    <trip id="res_motorcycle151" type="res_motorcycle_motorcycle" depart="181.20" departLane="best" from="E5" to="E22"/>
    <trip id="res_motorcycle152" type="res_motorcycle_motorcycle" depart="182.40" departLane="best" from="E10" to="E10"/>
    <trip id="res_motorcycle155" type="res_motorcycle_motorcycle" depart="186.00" departLane="best" from="E5" to="E13"/>
    <trip id="res_motorcycle156" type="res_motorcycle_motorcycle" depart="187.20" departLane="best" departSpeed="max" from="E11" to="E1"/>
    <trip id="res_motorcycle158" type="res_motorcycle_motorcycle" depart="189.60" departLane="best" departSpeed="max" from="E16" to="E22"/>
    <trip id="res_motorcycle160" type="res_motorcycle_motorcycle" depart="192.00" departLane="best" from="E5" to="E8"/>
    <trip id="res_motorcycle167" type="res_motorcycle_motorcycle" depart="200.40" departLane="best" from="E5" to="E6"/>
    <trip id="res_motorcycle168" type="res_motorcycle_motorcycle" depart="201.60" departLane="best" departSpeed="max" from="E11" to="E6"/>
    <trip id="res_motorcycle174" type="res_motorcycle_motorcycle" depart="208.80" departLane="best" departSpeed="max" from="E21" to="E17"/>
    <trip id="res_motorcycle181" type="res_motorcycle_motorcycle" depart="217.20" departLane="best" from="E2" to="E20"/>
    <trip id="res_motorcycle182" type="res_motorcycle_motorcycle" depart="218.40" departLane="best" departSpeed="max" from="E16" to="E22"/>
    <trip id="res_motorcycle187" type="res_motorcycle_motorcycle" depart="224.40" departLane="best" departSpeed="max" from="E16" to="E1"/>
    <trip id="res_motorcycle192" type="res_motorcycle_motorcycle" depart="230.40" departLane="best" departSpeed="max" from="E16" to="E14"/>
    <trip id="res_motorcycle195" type="res_motorcycle_motorcycle" depart="234.00" departLane="best" from="E5" to="E22"/>
    <trip id="res_motorcycle197" type="res_motorcycle_motorcycle" depart="236.40" departLane="best" from="E0" to="E14"/>
    <trip id="res_motorcycle198" type="res_motorcycle_motorcycle" depart="237.60" departLane="best" departSpeed="max" from="E16" to="E22"/>
    <trip id="res_motorcycle200" type="res_motorcycle_motorcycle" depart="240.00" departLane="best" departSpeed="max" from="E16" to="E13"/>
    <trip id="res_motorcycle202" type="res_motorcycle_motorcycle" depart="242.40" departLane="best" from="E4" to="E10"/>
    <trip id="res_motorcycle205" type="res_motorcycle_motorcycle" depart="246.00" departLane="best" from="E5" to="E5"/>
    <trip id="res_motorcycle206" type="res_motorcycle_motorcycle" depart="247.20" departLane="best" departSpeed="max" from="E23" to="E13"/>
    <trip id="res_motorcycle208" type="res_motorcycle_motorcycle" depart="249.60" departLane="best" departSpeed="max" from="E11" to="E2"/>
    <trip id="res_motorcycle209" type="res_motorcycle_motorcycle" depart="250.80" departLane="best" from="E5" to="E1"/>
    <trip id="res_motorcycle216" type="res_motorcycle_motorcycle" depart="259.20" departLane="best" departSpeed="max" from="E11" to="E8"/>
    <trip id="res_motorcycle218" type="res_motorcycle_motorcycle" depart="261.60" departLane="best" departSpeed="max" from="E11" to="E6"/>
    <trip id="res_motorcycle220" type="res_motorcycle_motorcycle" depart="264.00" departLane="best" departSpeed="max" from="E23" to="E8"/>
    <trip id="res_motorcycle221" type="res_motorcycle_motorcycle" depart="265.20" departLane="best" departSpeed="max" from="E19" to="E8"/>
    <trip id="res_motorcycle222" type="res_motorcycle_motorcycle" depart="266.40" departLane="best" from="E5" to="E22"/>
    <trip id="res_motorcycle224" type="res_motorcycle_motorcycle" depart="268.80" departLane="best" from="E5" to="E20"/>
    <trip id="res_motorcycle231" type="res_motorcycle_motorcycle" depart="277.20" departLane="best" departSpeed="max" from="E12" to="E15"/>
    <trip id="res_motorcycle235" type="res_motorcycle_motorcycle" depart="282.00" departLane="best" departSpeed="max" from="E16" to="E20"/>
    <trip id="res_motorcycle236" type="res_motorcycle_motorcycle" depart="283.20" departLane="best" departSpeed="max" from="E16" to="E13"/>
    <trip id="res_motorcycle238" type="res_motorcycle_motorcycle" depart="285.60" departLane="best" departSpeed="max" from="E19" to="E4"/>
    <trip id="res_motorcycle239" type="res_motorcycle_motorcycle" depart="286.80" departLane="best" from="E5" to="E5"/>
    <trip id="res_motorcycle241" type="res_motorcycle_motorcycle" depart="289.20" departLane="best" departSpeed="max" from="E16" to="E5"/>
    <trip id="res_motorcycle242" type="res_motorcycle_motorcycle" depart="290.40" departLane="best" from="E5" to="E8"/>
    <trip id="res_motorcycle245" type="res_motorcycle_motorcycle" depart="294.00" departLane="best" departSpeed="max" from="E11" to="E13"/>
    <trip id="res_motorcycle248" type="res_motorcycle_motorcycle" depart="297.60" departLane="best" departSpeed="max" from="E16" to="E10"/>
    <trip id="res_motorcycle251" type="res_motorcycle_motorcycle" depart="301.20" departLane="best" departSpeed="max" from="E16" to="E22"/>
    <trip id="res_motorcycle255" type="res_motorcycle_motorcycle" depart="306.00" departLane="best" departSpeed="max" from="E11" to="E15"/>
    <trip id="res_motorcycle256" type="res_motorcycle_motorcycle" depart="307.20" departLane="best" from="E4" to="E17"/>
    <trip id="res_motorcycle258" type="res_motorcycle_motorcycle" depart="309.60" departLane="best" departSpeed="max" from="E11" to="E1"/>
    <trip id="res_motorcycle260" type="res_motorcycle_motorcycle" depart="312.00" departLane="best" departSpeed="max" from="E9" to="E15"/>
    <trip id="res_motorcycle263" type="res_motorcycle_motorcycle" depart="315.60" departLane="best" from="E6" to="E13"/>
    <trip id="res_motorcycle268" type="res_motorcycle_motorcycle" depart="321.60" departLane="best" departSpeed="max" from="E11" to="E22"/>
    <trip id="res_motorcycle270" type="res_motorcycle_motorcycle" depart="324.00" departLane="best" from="E5" to="E8"/>
    <trip id="res_motorcycle273" type="res_motorcycle_motorcycle" depart="327.60" departLane="best" from="E7" to="E17"/>
    <trip id="res_motorcycle275" type="res_motorcycle_motorcycle" depart="330.00" departLane="best" from="E3" to="E3"/>
    <trip id="res_motorcycle277" type="res_motorcycle_motorcycle" depart="332.40" departLane="best" from="E5" to="E22"/>
    <trip id="res_motorcycle280" type="res_motorcycle_motorcycle" depart="336.00" departLane="best" departSpeed="max" from="E16" to="E15"/>
    <trip id="res_motorcycle282" type="res_motorcycle_motorcycle" depart="338.40" departLane="best" from="E5" to="E6"/>
    <trip id="res_motorcycle284" type="res_motorcycle_motorcycle" depart="340.80" departLane="best" departSpeed="max" from="E21" to="E6"/>
    <trip id="res_motorcycle285" type="res_motorcycle_motorcycle" depart="342.00" departLane="best" from="E4" to="E17"/>
    <trip id="res_motorcycle291" type="res_motorcycle_motorcycle" depart="349.20" departLane="best" from="E5" to="E1"/>
    <trip id="res_motorcycle292" type="res_motorcycle_motorcycle" depart="350.40" departLane="best" from="E5" to="E13"/>
    <trip id="res_motorcycle296" type="res_motorcycle_motorcycle" depart="355.20" departLane="best" departSpeed="max" from="E11" to="E5"/>
    <trip id="res_motorcycle302" type="res_motorcycle_motorcycle" depart="362.40" departLane="best" from="E3" to="E3"/>
    <trip id="res_motorcycle305" type="res_motorcycle_motorcycle" depart="366.00" departLane="best" from="E3" to="E14"/>
    <trip id="res_motorcycle306" type="res_motorcycle_motorcycle" depart="367.20" departLane="best" departSpeed="max" from="E18" to="E2"/>
    <trip id="res_motorcycle307" type="res_motorcycle_motorcycle" depart="368.40" departLane="best" from="E17" to="E17"/>
    <trip id="res_motorcycle310" type="res_motorcycle_motorcycle" depart="372.00" departLane="best" departSpeed="max" from="E11" to="E1"/>
    <trip id="res_motorcycle311" type="res_motorcycle_motorcycle" depart="373.20" departLane="best" departSpeed="max" from="E11" to="E1"/>
    <trip id="res_motorcycle313" type="res_motorcycle_motorcycle" depart="375.60" departLane="best" departSpeed="max" from="E11" to="E13"/>
    <trip id="res_motorcycle316" type="res_motorcycle_motorcycle" depart="379.20" departLane="best" departSpeed="max" from="E12" to="E1"/>
    <trip id="res_motorcycle317" type="res_motorcycle_motorcycle" depart="380.40" departLane="best" departSpeed="max" from="E11" to="E13"/>
    <trip id="res_motorcycle321" type="res_motorcycle_motorcycle" depart="385.20" departLane="best" from="E3" to="E10"/>
    <trip id="res_motorcycle322" type="res_motorcycle_motorcycle" depart="386.40" departLane="best" from="E5" to="E2"/>
    <trip id="res_motorcycle323" type="res_motorcycle_motorcycle" depart="387.60" departLane="best" from="E5" to="E22"/>
    <trip id="res_motorcycle329" type="res_motorcycle_motorcycle" depart="394.80" departLane="best" from="E10" to="E10"/>
    <trip id="res_motorcycle335" type="res_motorcycle_motorcycle" depart="402.00" departLane="best" departSpeed="max" from="E16" to="E6"/>
    <trip id="res_motorcycle336" type="res_motorcycle_motorcycle" depart="403.20" departLane="best" departSpeed="max" from="E9" to="E14"/>
    <trip id="res_motorcycle339" type="res_motorcycle_motorcycle" depart="406.80" departLane="best" departSpeed="max" from="E11" to="E13"/>
    <trip id="res_motorcycle341" type="res_motorcycle_motorcycle" depart="409.20" departLane="best" departSpeed="max" from="E11" to="E1"/>
    <trip id="res_motorcycle342" type="res_motorcycle_motorcycle" depart="410.40" departLane="best" from="E0" to="E2"/>
    <trip id="res_motorcycle343" type="res_motorcycle_motorcycle" depart="411.60" departLane="best" departSpeed="max" from="E19" to="E14"/>
    <trip id="res_motorcycle349" type="res_motorcycle_motorcycle" depart="418.80" departLane="best" departSpeed="max" from="E16" to="E20"/>
    <trip id="res_motorcycle351" type="res_motorcycle_motorcycle" depart="421.20" departLane="best" from="E5" to="E1"/>
    <trip id="res_motorcycle352" type="res_motorcycle_motorcycle" depart="422.40" departLane="best" departSpeed="max" from="E11" to="E14"/>
    <trip id="res_motorcycle355" type="res_motorcycle_motorcycle" depart="426.00" departLane="best" from="E3" to="E4"/>
    <trip id="res_motorcycle361" type="res_motorcycle_motorcycle" depart="433.20" departLane="best" from="E5" to="E22"/>
    <trip id="res_motorcycle362" type="res_motorcycle_motorcycle" depart="434.40" departLane="best" from="E7" to="E8"/>
    <trip id="res_motorcycle363" type="res_motorcycle_motorcycle" depart="435.60" departLane="best" departSpeed="max" from="E23" to="E14"/>
    <trip id="res_motorcycle369" type="res_motorcycle_motorcycle" depart="442.80" departLane="best" departSpeed="max" from="E16" to="E15"/>
    <trip id="res_motorcycle370" type="res_motorcycle_motorcycle" depart="444.00" departLane="best" departSpeed="max" from="E23" to="E6"/>
    <trip id="res_motorcycle376" type="res_motorcycle_motorcycle" depart="451.20" departLane="best" departSpeed="max" from="E16" to="E20"/>
    <trip id="res_motorcycle378" type="res_motorcycle_motorcycle" depart="453.60" departLane="best" from="E17" to="E17"/>
    <trip id="res_motorcycle379" type="res_motorcycle_motorcycle" depart="454.80" departLane="best" departSpeed="max" from="E11" to="E15"/>
    <trip id="res_motorcycle386" type="res_motorcycle_motorcycle" depart="463.20" departLane="best" departSpeed="max" from="E11" to="E20"/>
    <trip id="res_motorcycle390" type="res_motorcycle_motorcycle" depart="468.00" departLane="best" from="E5" to="E2"/>
    <trip id="res_motorcycle394" type="res_motorcycle_motorcycle" depart="472.80" departLane="best" from="E17" to="E17"/>
    <trip id="res_motorcycle395" type="res_motorcycle_motorcycle" depart="474.00" departLane="best" from="E5" to="E20"/>
    <trip id="res_motorcycle396" type="res_motorcycle_motorcycle" depart="475.20" departLane="best" from="E5" to="E6"/>
    <trip id="res_motorcycle400" type="res_motorcycle_motorcycle" depart="480.00" departLane="best" departSpeed="max" from="E12" to="E14"/>
    <trip id="res_motorcycle401" type="res_motorcycle_motorcycle" depart="481.20" departLane="best" departSpeed="max" from="E19" to="E8"/>
    <trip id="res_motorcycle407" type="res_motorcycle_motorcycle" depart="488.40" departLane="best" departSpeed="max" from="E18" to="E13"/>
    <trip id="res_motorcycle409" type="res_motorcycle_motorcycle" depart="490.80" departLane="best" from="E4" to="E4"/>
    <trip id="res_motorcycle410" type="res_motorcycle_motorcycle" depart="492.00" departLane="best" from="E4" to="E17"/>
    <trip id="res_motorcycle415" type="res_motorcycle_motorcycle" depart="498.00" departLane="best" from="E5" to="E2"/>
    <trip id="res_motorcycle417" type="res_motorcycle_motorcycle" depart="500.40" departLane="best" from="E4" to="E17"/>
    <trip id="res_motorcycle421" type="res_motorcycle_motorcycle" depart="505.20" departLane="best" departSpeed="max" from="E21" to="E6"/>
    <trip id="res_motorcycle422" type="res_motorcycle_motorcycle" depart="506.40" departLane="best" from="E5" to="E6"/>
    <trip id="res_motorcycle423" type="res_motorcycle_motorcycle" depart="507.60" departLane="best" departSpeed="max" from="E16" to="E15"/>
    <trip id="res_motorcycle427" type="res_motorcycle_motorcycle" depart="512.40" departLane="best" from="E5" to="E8"/>
    <trip id="res_motorcycle428" type="res_motorcycle_motorcycle" depart="513.60" departLane="best" from="E4" to="E17"/>
    <trip id="res_motorcycle430" type="res_motorcycle_motorcycle" depart="516.00" departLane="best" from="E5" to="E2"/>
    <trip id="res_motorcycle436" type="res_motorcycle_motorcycle" depart="523.20" departLane="best" departSpeed="max" from="E11" to="E1"/>
    <trip id="res_motorcycle437" type="res_motorcycle_motorcycle" depart="524.40" departLane="best" from="E5" to="E22"/>
    <trip id="res_motorcycle440" type="res_motorcycle_motorcycle" depart="528.00" departLane="best" departSpeed="max" from="E11" to="E14"/>
    <trip id="res_motorcycle443" type="res_motorcycle_motorcycle" depart="531.60" departLane="best" departSpeed="max" from="E11" to="E2"/>
    <trip id="res_motorcycle444" type="res_motorcycle_motorcycle" depart="532.80" departLane="best" departSpeed="max" from="E16" to="E22"/>
    <trip id="res_motorcycle445" type="res_motorcycle_motorcycle" depart="534.00" departLane="best" departSpeed="max" from="E21" to="E17"/>
    <trip id="res_motorcycle446" type="res_motorcycle_motorcycle" depart="535.20" departLane="best" departSpeed="max" from="E11" to="E6"/>
    <trip id="res_motorcycle447" type="res_motorcycle_motorcycle" depart="536.40" departLane="best" departSpeed="max" from="E11" to="E17"/>
    <trip id="res_motorcycle449" type="res_motorcycle_motorcycle" depart="538.80" departLane="best" departSpeed="max" from="E18" to="E22"/>
    <trip id="res_motorcycle450" type="res_motorcycle_motorcycle" depart="540.00" departLane="best" departSpeed="max" from="E9" to="E14"/>
    <trip id="res_motorcycle452" type="res_motorcycle_motorcycle" depart="542.40" departLane="best" departSpeed="max" from="E12" to="E22"/>
    <trip id="res_motorcycle453" type="res_motorcycle_motorcycle" depart="543.60" departLane="best" from="E3" to="E4"/>
    <trip id="res_motorcycle458" type="res_motorcycle_motorcycle" depart="549.60" departLane="best" departSpeed="max" from="E21" to="E22"/>
    <trip id="res_motorcycle459" type="res_motorcycle_motorcycle" depart="550.80" departLane="best" departSpeed="max" from="E23" to="E4"/>
    <trip id="res_motorcycle462" type="res_motorcycle_motorcycle" depart="554.40" departLane="best" departSpeed="max" from="E21" to="E14"/>
    <trip id="res_motorcycle463" type="res_motorcycle_motorcycle" depart="555.60" departLane="best" departSpeed="max" from="E16" to="E22"/>
    <trip id="res_motorcycle469" type="res_motorcycle_motorcycle" depart="562.80" departLane="best" from="E5" to="E14"/>
    <trip id="res_motorcycle470" type="res_motorcycle_motorcycle" depart="564.00" departLane="best" from="E5" to="E2"/>
    <trip id="res_motorcycle471" type="res_motorcycle_motorcycle" depart="565.20" departLane="best" from="E4" to="E4"/>
    <trip id="res_motorcycle472" type="res_motorcycle_motorcycle" depart="566.40" departLane="best" departSpeed="max" from="E16" to="E1"/>
    <trip id="res_motorcycle473" type="res_motorcycle_motorcycle" depart="567.60" departLane="best" from="E7" to="E10"/>
    <trip id="res_motorcycle477" type="res_motorcycle_motorcycle" depart="572.40" departLane="best" departSpeed="max" from="E16" to="E5"/>
    <trip id="res_motorcycle478" type="res_motorcycle_motorcycle" depart="573.60" departLane="best" from="E0" to="E20"/>
    <trip id="res_motorcycle480" type="res_motorcycle_motorcycle" depart="576.00" departLane="best" departSpeed="max" from="E23" to="E22"/>
    <trip id="res_motorcycle481" type="res_motorcycle_motorcycle" depart="577.20" departLane="best" from="E5" to="E8"/>
    <trip id="res_motorcycle485" type="res_motorcycle_motorcycle" depart="582.00" departLane="best" departSpeed="max" from="E11" to="E1"/>
    <trip id="res_motorcycle492" type="res_motorcycle_motorcycle" depart="590.40" departLane="best" departSpeed="max" from="E23" to="E4"/>
    <trip id="res_motorcycle494" type="res_motorcycle_motorcycle" depart="592.80" departLane="best" from="E4" to="E10"/>
    <trip id="res_motorcycle495" type="res_motorcycle_motorcycle" depart="594.00" departLane="best" departSpeed="max" from="E16" to="E1"/>
    <trip id="res_motorcycle496" type="res_motorcycle_motorcycle" depart="595.20" departLane="best" from="E17" to="E17"/>
    <trip id="res_motorcycle498" type="res_motorcycle_motorcycle" depart="597.60" departLane="best" departSpeed="max" from="E16" to="E2"/>
    <trip id="res_motorcycle502" type="res_motorcycle_motorcycle" depart="602.40" departLane="best" departSpeed="max" from="E16" to="E17"/>
    <trip id="res_motorcycle503" type="res_motorcycle_motorcycle" depart="603.60" departLane="best" departSpeed="max" from="E11" to="E1"/>
    <trip id="res_motorcycle504" type="res_motorcycle_motorcycle" depart="604.80" departLane="best" from="E5" to="E2"/>
    <trip id="res_motorcycle510" type="res_motorcycle_motorcycle" depart="612.00" departLane="best" departSpeed="max" from="E11" to="E13"/>
    <trip id="res_motorcycle511" type="res_motorcycle_motorcycle" depart="613.20" departLane="best" from="E5" to="E15"/>
    <trip id="res_motorcycle513" type="res_motorcycle_motorcycle" depart="615.60" departLane="best" from="E0" to="E6"/>
    <trip id="res_motorcycle514" type="res_motorcycle_motorcycle" depart="616.80" departLane="best" from="E10" to="E10"/>
    <trip id="res_motorcycle518" type="res_motorcycle_motorcycle" depart="621.60" departLane="best" departSpeed="max" from="E11" to="E15"/>
    <trip id="res_motorcycle528" type="res_motorcycle_motorcycle" depart="633.60" departLane="best" from="E17" to="E17"/>
    <trip id="res_motorcycle530" type="res_motorcycle_motorcycle" depart="636.00" departLane="best" from="E5" to="E1"/>
    <trip id="res_motorcycle533" type="res_motorcycle_motorcycle" depart="639.60" departLane="best" from="E20" to="E20"/>