<?xml version="1.0" encoding="UTF-8"?>

<!-- generated on 2025-07-18 12:19:49.965881 by randomTrips.py v1_22_0+0002-63e50f52594
<configuration>
    <net-file value="osm.net.xml.gz"/>
    <output-trip-file value="osm.res_veh.trips.xml"/>
    <prefix value="res_veh"/>
    <trip-attributes value="departLane='best'"/>
    <fringe-start-attributes value="departSpeed='max'"/>
    <remove-loops value="True"/>
    <validate value="True"/>
    <insertion-rate value="376.0"/>
</configuration>
-->

<!-- generated on 2025-07-18 12:19:49 by Eclipse SUMO duarouter Version 1.22.0
<duarouterConfiguration xmlns:xsi="http://www.w3.org/2001/XMLSchema-instance" xsi:noNamespaceSchemaLocation="http://sumo.dlr.de/xsd/duarouterConfiguration.xsd">

    <input>
        <net-file value="osm.net.xml.gz"/>
        <route-files value="osm.res_veh.trips.xml"/>
    </input>

    <output>
        <output-file value="osm.res_veh.trips.xml.tmp"/>
        <alternatives-output value="NUL"/>
        <write-trips value="true"/>
    </output>

    <processing>
        <remove-loops value="true"/>
    </processing>

    <time>
        <begin value="0.0"/>
        <end value="3600.0"/>
    </time>

    <report>
        <no-warnings value="true"/>
        <ignore-errors value="true"/>
        <no-step-log value="true"/>
    </report>

</duarouterConfiguration>
-->

<routes xmlns:xsi="http://www.w3.org/2001/XMLSchema-instance" xsi:noNamespaceSchemaLocation="http://sumo.dlr.de/xsd/routes_file.xsd">
    <trip id="res_veh1" depart="9.57" departLane="best" departSpeed="max" from="E16" to="E13"/>
    <trip id="res_veh3" depart="28.72" departLane="best" from="E7" to="E1"/>
    <trip id="res_veh5" depart="47.87" departLane="best" departSpeed="max" from="E12" to="E20"/>
    <trip id="res_veh6" depart="57.45" departLane="best" from="E0" to="E13"/>
    <trip id="res_veh8" depart="76.60" departLane="best" departSpeed="max" from="E12" to="E22"/>
    <trip id="res_veh11" depart="105.32" departLane="best" departSpeed="max" from="E18" to="E10"/>
    <trip id="res_veh12" depart="114.89" departLane="best" departSpeed="max" from="E9" to="E15"/>
    <trip id="res_veh13" depart="124.47" departLane="best" from="E1" to="E1"/>
    <trip id="res_veh16" depart="153.19" departLane="best" departSpeed="max" from="E21" to="E8"/>
    <trip id="res_veh17" depart="162.77" departLane="best" departSpeed="max" from="E19" to="E20"/>
    <trip id="res_veh21" depart="201.06" departLane="best" departSpeed="max" from="E12" to="E14"/>
    <trip id="res_veh24" depart="229.79" departLane="best" from="E3" to="E15"/>
    <trip id="res_veh25" depart="239.36" departLane="best" departSpeed="max" from="E18" to="E13"/>
    <trip id="res_veh29" depart="277.66" departLane="best" departSpeed="max" from="E11" to="E17"/>
    <trip id="res_veh31" depart="296.81" departLane="best" departSpeed="max" from="E21" to="E3"/>
    <trip id="res_veh34" depart="325.53" departLane="best" departSpeed="max" from="E18" to="E14"/>
    <trip id="res_veh35" depart="335.11" departLane="best" departSpeed="max" from="E12" to="E8"/>
    <trip id="res_veh36" depart="344.68" departLane="best" from="E7" to="E15"/>
    <trip id="res_veh37" depart="354.26" departLane="best" from="E3" to="E17"/>
    <trip id="res_veh38" depart="363.83" departLane="best" from="E7" to="E2"/>
    <trip id="res_veh39" depart="373.40" departLane="best" departSpeed="max" from="E16" to="E13"/>
    <trip id="res_veh40" depart="382.98" departLane="best" departSpeed="max" from="E21" to="E14"/>
    <trip id="res_veh42" depart="402.13" departLane="best" departSpeed="max" from="E19" to="E13"/>
    <trip id="res_veh43" depart="411.70" departLane="best" departSpeed="max" from="E9" to="E20"/>
    <trip id="res_veh48" depart="459.57" departLane="best" departSpeed="max" from="E9" to="E20"/>
    <trip id="res_veh49" depart="469.15" departLane="best" departSpeed="max" from="E9" to="E6"/>
    <trip id="res_veh50" depart="478.72" departLane="best" from="E0" to="E4"/>
    <trip id="res_veh56" depart="536.17" departLane="best" departSpeed="max" from="E21" to="E10"/>
    <trip id="res_veh59" depart="564.89" departLane="best" departSpeed="max" from="E23" to="E10"/>
    <trip id="res_veh60" depart="574.47" departLane="best" from="E5" to="E20"/>
    <trip id="res_veh61" depart="584.04" departLane="best" from="E5" to="E20"/>
    <trip id="res_veh66" depart="631.91" departLane="best" from="E7" to="E8"/>
    <trip id="res_veh70" depart="670.21" departLane="best" from="E2" to="E20"/>
    <trip id="res_veh71" depart="679.79" departLane="best" departSpeed="max" from="E16" to="E6"/>
    <trip id="res_veh72" depart="689.36" departLane="best" departSpeed="max" from="E19" to="E13"/>
    <trip id="res_veh73" depart="698.94" departLane="best" departSpeed="max" from="E21" to="E4"/>
    <trip id="res_veh74" depart="708.51" departLane="best" departSpeed="max" from="E12" to="E14"/>
    <trip id="res_veh76" depart="727.66" departLane="best" from="E2" to="E20"/>
    <trip id="res_veh78" depart="746.81" departLane="best" departSpeed="max" from="E18" to="E22"/>
    <trip id="res_veh81" depart="775.53" departLane="best" departSpeed="max" from="E12" to="E7"/>
    <trip id="res_veh84" depart="804.26" departLane="best" departSpeed="max" from="E12" to="E10"/>
    <trip id="res_veh85" depart="813.83" departLane="best" from="E7" to="E22"/>
    <trip id="res_veh87" depart="832.98" departLane="best" from="E5" to="E13"/>
    <trip id="res_veh89" depart="852.13" departLane="best" departSpeed="max" from="E19" to="E2"/>
    <trip id="res_veh92" depart="880.85" departLane="best" departSpeed="max" from="E19" to="E15"/>
    <trip id="res_veh93" depart="890.43" departLane="best" from="E6" to="E13"/>
    <trip id="res_veh94" depart="900.00" departLane="best" departSpeed="max" from="E12" to="E2"/>
    <trip id="res_veh95" depart="909.57" departLane="best" departSpeed="max" from="E19" to="E14"/>
    <trip id="res_veh96" depart="919.15" departLane="best" departSpeed="max" from="E12" to="E7"/>
    <trip id="res_veh99" depart="947.87" departLane="best" departSpeed="max" from="E9" to="E6"/>
    <trip id="res_veh104" depart="995.74" departLane="best" departSpeed="max" from="E19" to="E8"/>
    <trip id="res_veh105" depart="1005.32" departLane="best" departSpeed="max" from="E16" to="E5"/>
    <trip id="res_veh108" depart="1034.04" departLane="best" departSpeed="max" from="E21" to="E4"/>
    <trip id="res_veh109" depart="1043.62" departLane="best" departSpeed="max" from="E11" to="E14"/>
    <trip id="res_veh110" depart="1053.19" departLane="best" departSpeed="max" from="E9" to="E22"/>
    <trip id="res_veh111" depart="1062.77" departLane="best" departSpeed="max" from="E21" to="E4"/>
    <trip id="res_veh112" depart="1072.34" departLane="best" from="E0" to="E22"/>
    <trip id="res_veh113" depart="1081.91" departLane="best" departSpeed="max" from="E21" to="E6"/>
    <trip id="res_veh114" depart="1091.49" departLane="best" departSpeed="max" from="E11" to="E8"/>
    <trip id="res_veh116" depart="1110.64" departLane="best" departSpeed="max" from="E23" to="E3"/>
    <trip id="res_veh117" depart="1120.21" departLane="best" departSpeed="max" from="E12" to="E1"/>
    <trip id="res_veh119" depart="1139.36" departLane="best" departSpeed="max" from="E23" to="E22"/>
    <trip id="res_veh120" depart="1148.94" departLane="best" departSpeed="max" from="E19" to="E22"/>
    <trip id="res_veh122" depart="1168.09" departLane="best" departSpeed="max" from="E12" to="E4"/>
    <trip id="res_veh123" depart="1177.66" departLane="best" departSpeed="max" from="E12" to="E17"/>
    <trip id="res_veh124" depart="1187.23" departLane="best" from="E3" to="E14"/>
    <trip id="res_veh130" depart="1244.68" departLane="best" from="E7" to="E7"/>
    <trip id="res_veh131" depart="1254.26" departLane="best" departSpeed="max" from="E18" to="E10"/>
    <trip id="res_veh133" depart="1273.40" departLane="best" departSpeed="max" from="E23" to="E8"/>
    <trip id="res_veh135" depart="1292.55" departLane="best" from="E6" to="E14"/>
    <trip id="res_veh136" depart="1302.13" departLane="best" from="E3" to="E8"/>
    <trip id="res_veh137" depart="1311.70" departLane="best" departSpeed="max" from="E11" to="E1"/>
    <trip id="res_veh139" depart="1330.85" departLane="best" departSpeed="max" from="E16" to="E22"/>
    <trip id="res_veh141" depart="1350.00" departLane="best" from="E3" to="E14"/>
    <trip id="res_veh144" depart="1378.72" departLane="best" departSpeed="max" from="E19" to="E14"/>
    <trip id="res_veh146" depart="1397.87" departLane="best" from="E3" to="E14"/>
    <trip id="res_veh150" depart="1436.17" departLane="best" from="E7" to="E20"/>
    <trip id="res_veh154" depart="1474.47" departLane="best" from="E5" to="E6"/>
    <trip id="res_veh156" depart="1493.62" departLane="best" departSpeed="max" from="E12" to="E1"/>
    <trip id="res_veh158" depart="1512.77" departLane="best" departSpeed="max" from="E19" to="E22"/>
    <trip id="res_veh162" depart="1551.06" departLane="best" from="E0" to="E4"/>
    <trip id="res_veh164" depart="1570.21" departLane="best" from="E5" to="E6"/>
    <trip id="res_veh165" depart="1579.79" departLane="best" from="E5" to="E14"/>
    <trip id="res_veh166" depart="1589.36" departLane="best" from="E5" to="E1"/>
    <trip id="res_veh167" depart="1598.94" departLane="best" from="E6" to="E6"/>
    <trip id="res_veh170" depart="1627.66" departLane="best" from="E5" to="E13"/>
    <trip id="res_veh171" depart="1637.23" departLane="best" from="E0" to="E13"/>
    <trip id="res_veh172" depart="1646.81" departLane="best" departSpeed="max" from="E18" to="E6"/>
    <trip id="res_veh173" depart="1656.38" departLane="best" departSpeed="max" from="E9" to="E14"/>
    <trip id="res_veh174" depart="1665.96" departLane="best" from="E3" to="E17"/>
    <trip id="res_veh175" depart="1675.53" departLane="best" departSpeed="max" from="E9" to="E20"/>
    <trip id="res_veh177" depart="1694.68" departLane="best" departSpeed="max" from="E9" to="E10"/>
    <trip id="res_veh178" depart="1704.26" departLane="best" departSpeed="max" from="E9" to="E14"/>
    <trip id="res_veh181" depart="1732.98" departLane="best" departSpeed="max" from="E23" to="E20"/>
    <trip id="res_veh182" depart="1742.55" departLane="best" departSpeed="max" from="E19" to="E22"/>
    <trip id="res_veh185" depart="1771.28" departLane="best" departSpeed="max" from="E21" to="E4"/>
    <trip id="res_veh188" depart="1800.00" departLane="best" from="E3" to="E15"/>
    <trip id="res_veh189" depart="1809.57" departLane="best" departSpeed="max" from="E18" to="E6"/>
    <trip id="res_veh191" depart="1828.72" departLane="best" departSpeed="max" from="E16" to="E17"/>
    <trip id="res_veh192" depart="1838.30" departLane="best" departSpeed="max" from="E19" to="E14"/>
    <trip id="res_veh193" depart="1847.87" departLane="best" departSpeed="max" from="E11" to="E17"/>
    <trip id="res_veh195" depart="1867.02" departLane="best" from="E7" to="E22"/>
    <trip id="res_veh196" depart="1876.60" departLane="best" departSpeed="max" from="E16" to="E20"/>
    <trip id="res_veh197" depart="1886.17" departLane="best" from="E0" to="E14"/>
    <trip id="res_veh198" depart="1895.74" departLane="best" departSpeed="max" from="E19" to="E22"/>
    <trip id="res_veh204" depart="1953.19" departLane="best" from="E3" to="E15"/>
    <trip id="res_veh206" depart="1972.34" departLane="best" from="E3" to="E13"/>
    <trip id="res_veh208" depart="1991.49" departLane="best" departSpeed="max" from="E12" to="E2"/>
    <trip id="res_veh211" depart="2020.21" departLane="best" departSpeed="max" from="E12" to="E4"/>
    <trip id="res_veh214" depart="2048.94" departLane="best" from="E5" to="E5"/>
    <trip id="res_veh216" depart="2068.09" departLane="best" departSpeed="max" from="E11" to="E8"/>
    <trip id="res_veh220" depart="2106.38" departLane="best" from="E3" to="E8"/>
    <trip id="res_veh221" depart="2115.96" departLane="best" departSpeed="max" from="E23" to="E8"/>
    <trip id="res_veh222" depart="2125.53" departLane="best" from="E7" to="E22"/>
    <trip id="res_veh225" depart="2154.26" departLane="best" from="E7" to="E4"/>
    <trip id="res_veh228" depart="2182.98" departLane="best" from="E5" to="E20"/>
    <trip id="res_veh229" depart="2192.55" departLane="best" from="E3" to="E14"/>
    <trip id="res_veh231" depart="2211.70" departLane="best" departSpeed="max" from="E16" to="E15"/>
    <trip id="res_veh232" depart="2221.28" departLane="best" departSpeed="max" from="E21" to="E10"/>
    <trip id="res_veh233" depart="2230.85" departLane="best" departSpeed="max" from="E12" to="E4"/>
    <trip id="res_veh235" depart="2250.00" departLane="best" departSpeed="max" from="E19" to="E20"/>
    <trip id="res_veh236" depart="2259.57" departLane="best" departSpeed="max" from="E19" to="E13"/>
    <trip id="res_veh237" depart="2269.15" departLane="best" departSpeed="max" from="E19" to="E7"/>
    <trip id="res_veh238" depart="2278.72" departLane="best" departSpeed="max" from="E23" to="E4"/>
    <trip id="res_veh243" depart="2326.60" departLane="best" departSpeed="max" from="E19" to="E4"/>
    <trip id="res_veh244" depart="2336.17" departLane="best" departSpeed="max" from="E21" to="E22"/>
    <trip id="res_veh248" depart="2374.47" departLane="best" departSpeed="max" from="E19" to="E10"/>
    <trip id="res_veh251" depart="2403.19" departLane="best" departSpeed="max" from="E19" to="E22"/>
    <trip id="res_veh253" depart="2422.34" departLane="best" departSpeed="max" from="E11" to="E2"/>
    <trip id="res_veh254" depart="2431.91" departLane="best" from="E0" to="E17"/>
    <trip id="res_veh255" depart="2441.49" departLane="best" departSpeed="max" from="E12" to="E15"/>
    <trip id="res_veh257" depart="2460.64" departLane="best" from="E5" to="E6"/>
    <trip id="res_veh258" depart="2470.21" departLane="best" departSpeed="max" from="E16" to="E1"/>
    <trip id="res_veh259" depart="2479.79" departLane="best" from="E0" to="E20"/>
    <trip id="res_veh260" depart="2489.36" departLane="best" departSpeed="max" from="E9" to="E15"/>
    <trip id="res_veh263" depart="2518.09" departLane="best" departSpeed="max" from="E9" to="E13"/>
    <trip id="res_veh264" depart="2527.66" departLane="best" from="E0" to="E10"/>
    <trip id="res_veh266" depart="2546.81" departLane="best" departSpeed="max" from="E23" to="E13"/>
    <trip id="res_veh268" depart="2565.96" departLane="best" departSpeed="max" from="E11" to="E22"/>
    <trip id="res_veh273" depart="2613.83" departLane="best" departSpeed="max" from="E9" to="E17"/>
    <trip id="res_veh278" depart="2661.70" departLane="best" from="E1" to="E8"/>
    <trip id="res_veh279" depart="2671.28" departLane="best" from="E5" to="E15"/>
    <trip id="res_veh280" depart="2680.85" departLane="best" departSpeed="max" from="E19" to="E15"/>
    <trip id="res_veh281" depart="2690.43" departLane="best" departSpeed="max" from="E21" to="E15"/>
    <trip id="res_veh282" depart="2700.00" departLane="best" from="E6" to="E6"/>
    <trip id="res_veh283" depart="2709.57" departLane="best" from="E1" to="E8"/>
    <trip id="res_veh284" depart="2719.15" departLane="best" from="E3" to="E6"/>
    <trip id="res_veh285" depart="2728.72" departLane="best" from="E4" to="E17"/>
    <trip id="res_veh287" depart="2747.87" departLane="best" departSpeed="max" from="E16" to="E5"/>
    <trip id="res_veh289" depart="2767.02" departLane="best" departSpeed="max" from="E19" to="E4"/>
    <trip id="res_veh290" depart="2776.60" departLane="best" departSpeed="max" from="E16" to="E6"/>
    <trip id="res_veh293" depart="2805.32" departLane="best" from="E2" to="E22"/>
    <trip id="res_veh307" depart="2939.36" departLane="best" departSpeed="max" from="E21" to="E17"/>
    <trip id="res_veh310" depart="2968.09" departLane="best" departSpeed="max" from="E16" to="E1"/>
    <trip id="res_veh311" depart="2977.66" departLane="best" departSpeed="max" from="E12" to="E1"/>
    <trip id="res_veh313" depart="2996.81" departLane="best" departSpeed="max" from="E11" to="E13"/>
    <trip id="res_veh315" depart="3015.96" departLane="best" departSpeed="max" from="E9" to="E20"/>
    <trip id="res_veh316" depart="3025.53" departLane="best" departSpeed="max" from="E16" to="E1"/>
    <trip id="res_veh319" depart="3054.26" departLane="best" departSpeed="max" from="E21" to="E14"/>
    <trip id="res_veh320" depart="3063.83" departLane="best" departSpeed="max" from="E9" to="E20"/>
    <trip id="res_veh321" depart="3073.40" departLane="best" from="E4" to="E10"/>
    <trip id="res_veh324" depart="3102.13" departLane="best" from="E2" to="E2"/>
    <trip id="res_veh326" depart="3121.28" departLane="best" departSpeed="max" from="E9" to="E2"/>
    <trip id="res_veh329" depart="3150.00" departLane="best" from="E0" to="E10"/>
    <trip id="res_veh330" depart="3159.57" departLane="best" departSpeed="max" from="E23" to="E14"/>
    <trip id="res_veh332" depart="3178.72" departLane="best" from="E5" to="E22"/>
    <trip id="res_veh333" depart="3188.30" departLane="best" from="E5" to="E13"/>
    <trip id="res_veh336" depart="3217.02" departLane="best" departSpeed="max" from="E9" to="E14"/>
    <trip id="res_veh337" depart="3226.60" departLane="best" departSpeed="max" from="E23" to="E22"/>
    <trip id="res_veh340" depart="3255.32" departLane="best" from="E3" to="E10"/>
    <trip id="res_veh341" depart="3264.89" departLane="best" departSpeed="max" from="E11" to="E1"/>
    <trip id="res_veh342" depart="3274.47" departLane="best" from="E0" to="E2"/>
    <trip id="res_veh343" depart="3284.04" departLane="best" departSpeed="max" from="E23" to="E14"/>
    <trip id="res_veh344" depart="3293.62" departLane="best" departSpeed="max" from="E12" to="E4"/>
    <trip id="res_veh349" depart="3341.49" departLane="best" departSpeed="max" from="E19" to="E20"/>
    <trip id="res_veh352" depart="3370.21" departLane="best" departSpeed="max" from="E11" to="E14"/>
    <trip id="res_veh354" depart="3389.36" departLane="best" departSpeed="max" from="E16" to="E1"/>
    <trip id="res_veh355" depart="3398.94" departLane="best" from="E4" to="E4"/>
    <trip id="res_veh356" depart="3408.51" departLane="best" departSpeed="max" from="E9" to="E20"/>
    <trip id="res_veh358" depart="3427.66" departLane="best" from="E0" to="E17"/>
    <trip id="res_veh359" depart="3437.23" departLane="best" departSpeed="max" from="E18" to="E14"/>
    <trip id="res_veh360" depart="3446.81" departLane="best" from="E1" to="E8"/>
    <trip id="res_veh363" depart="3475.53" departLane="best" from="E3" to="E14"/>
    <trip id="res_veh366" depart="3504.26" departLane="best" from="E7" to="E10"/>
    <trip id="res_veh367" depart="3513.83" departLane="best" departSpeed="max" from="E23" to="E3"/>
    <trip id="res_veh369" depart="3532.98" departLane="best" departSpeed="max" from="E18" to="E15"/>
    <trip id="res_veh370" depart="3542.55" departLane="best" from="E3" to="E6"/>
    <trip id="res_veh371" depart="3552.13" departLane="best" departSpeed="max" from="E18" to="E4"/>
    <trip id="res_veh372" depart="3561.70" departLane="best" departSpeed="max" from="E16" to="E8"/>
    <trip id="res_veh375" depart="3590.43" departLane="best" departSpeed="max" from="E18" to="E8"/>
</routes>
