<?xml version="1.0" encoding="UTF-8"?>

<!-- generated on 2025-07-25 10:09:34 by Eclipse SUMO duarouter Version 1.23.1
<duarouterConfiguration xmlns:xsi="http://www.w3.org/2001/XMLSchema-instance" xsi:noNamespaceSchemaLocation="http://sumo.dlr.de/xsd/duarouterConfiguration.xsd">

    <input>
        <net-file value="osm.net.xml.gz"/>
        <route-files value="osm.res_truck.trips.xml"/>
    </input>

    <output>
        <output-file value="osm.res_truck.rou.xml"/>
    </output>

</duarouterConfiguration>
-->

<routes xmlns:xsi="http://www.w3.org/2001/XMLSchema-instance" xsi:noNamespaceSchemaLocation="http://sumo.dlr.de/xsd/routes_file.xsd">
    <vType id="res_truck_truck" vClass="truck"/>
    <vehicle id="res_truck0" type="res_truck_truck" depart="0.00" departLane="best" departSpeed="max">
        <route edges="E21 E22 E18.410 E0"/>
    </vehicle>
    <vehicle id="res_truck1" type="res_truck_truck" depart="18.00" departLane="best" departSpeed="max">
        <route edges="E21 E3 E6 E14 E16.294"/>
    </vehicle>
    <vehicle id="res_truck2" type="res_truck_truck" depart="36.00" departLane="best" departSpeed="max">
        <route edges="E21 E3 E6 E25 E29.307"/>
    </vehicle>
    <vehicle id="res_truck3" type="res_truck_truck" depart="54.00" departLane="best" departSpeed="max">
        <route edges="E21 E3 E6 E13"/>
    </vehicle>
    <vehicle id="res_truck4" type="res_truck_truck" depart="72.00" departLane="best" departSpeed="max">
        <route edges="E21 E3 E1"/>
    </vehicle>
    <vehicle id="res_truck5" type="res_truck_truck" depart="90.00" departLane="best" departSpeed="max">
        <route edges="E21 E3 E6 E25"/>
    </vehicle>
    <vehicle id="res_truck6" type="res_truck_truck" depart="108.00" departLane="best" departSpeed="max">
        <route edges="E21 E3 E1 E15 E15.463"/>
    </vehicle>
    <vehicle id="res_truck7" type="res_truck_truck" depart="126.00" departLane="best" departSpeed="max">
        <route edges="E21 E3 E1 E15 E25.506"/>
    </vehicle>
    <vehicle id="res_truck8" type="res_truck_truck" depart="144.00" departLane="best" departSpeed="max">
        <route edges="E21 E32 E27.479"/>
    </vehicle>
    <vehicle id="res_truck9" type="res_truck_truck" depart="162.00" departLane="best" departSpeed="max">
        <route edges="E21 E22 E18.410 E0"/>
    </vehicle>
    <vehicle id="res_truck10" type="res_truck_truck" depart="180.00" departLane="best" departSpeed="max">
        <route edges="E21 E3"/>
    </vehicle>
    <vehicle id="res_truck11" type="res_truck_truck" depart="198.00" departLane="best" departSpeed="max">
        <route edges="E21 E3 E6 E14 E14.453"/>
    </vehicle>
    <vehicle id="res_truck12" type="res_truck_truck" depart="216.00" departLane="best" departSpeed="max">
        <route edges="E21 E32"/>
    </vehicle>
    <vehicle id="res_truck13" type="res_truck_truck" depart="234.00" departLane="best" departSpeed="max">
        <route edges="E21 E3 E6 E13"/>
    </vehicle>
    <vehicle id="res_truck14" type="res_truck_truck" depart="252.00" departLane="best" departSpeed="max">
        <route edges="E21 E32 E27.479"/>
    </vehicle>
    <vehicle id="res_truck15" type="res_truck_truck" depart="270.00" departLane="best" departSpeed="max">
        <route edges="E21 E3 E1 E30"/>
    </vehicle>
    <vehicle id="res_truck16" type="res_truck_truck" depart="288.00" departLane="best" departSpeed="max">
        <route edges="E21 E3 E1 E8"/>
    </vehicle>
    <vehicle id="res_truck17" type="res_truck_truck" depart="306.00" departLane="best" departSpeed="max">
        <route edges="E21 E3 E1 E15 E25.506"/>
    </vehicle>
    <vehicle id="res_truck18" type="res_truck_truck" depart="324.00" departLane="best" departSpeed="max">
        <route edges="E21 E3 E4 E28"/>
    </vehicle>
    <vehicle id="res_truck19" type="res_truck_truck" depart="342.00" departLane="best" departSpeed="max">
        <route edges="E21 E3 E1 E15 E26.415"/>
    </vehicle>
    <vehicle id="res_truck20" type="res_truck_truck" depart="360.00" departLane="best" departSpeed="max">
        <route edges="E21 E3 E1"/>
    </vehicle>
    <vehicle id="res_truck21" type="res_truck_truck" depart="378.00" departLane="best" departSpeed="max">
        <route edges="E21 E32 E17.564"/>
    </vehicle>
    <vehicle id="res_truck22" type="res_truck_truck" depart="396.00" departLane="best" departSpeed="max">
        <route edges="E21 E3 E6 E14 E16.294"/>
    </vehicle>
    <vehicle id="res_truck23" type="res_truck_truck" depart="414.00" departLane="best" departSpeed="max">
        <route edges="E21 E32 E17.564"/>
    </vehicle>
    <vehicle id="res_truck24" type="res_truck_truck" depart="432.00" departLane="best" departSpeed="max">
        <route edges="E21 E3 E4 E17 E23.356 E20"/>
    </vehicle>
    <vehicle id="res_truck25" type="res_truck_truck" depart="450.00" departLane="best" departSpeed="max">
        <route edges="E21 E3 E1 E15 E15.463"/>
    </vehicle>
    <vehicle id="res_truck26" type="res_truck_truck" depart="468.00" departLane="best" departSpeed="max">
        <route edges="E21 E3 E6"/>
    </vehicle>
    <vehicle id="res_truck27" type="res_truck_truck" depart="486.00" departLane="best" departSpeed="max">
        <route edges="E21 E32 E27.479"/>
    </vehicle>
    <vehicle id="res_truck28" type="res_truck_truck" depart="504.00" departLane="best" departSpeed="max">
        <route edges="E21 E3 E1 E30"/>
    </vehicle>
    <vehicle id="res_truck29" type="res_truck_truck" depart="522.00" departLane="best" departSpeed="max">
        <route edges="E21 E3 E4 E17 E23.356 E20"/>
    </vehicle>
    <vehicle id="res_truck30" type="res_truck_truck" depart="540.00" departLane="best" departSpeed="max">
        <route edges="E21 E3 E6 E14 E28.467"/>
    </vehicle>
    <vehicle id="res_truck31" type="res_truck_truck" depart="558.00" departLane="best" departSpeed="max">
        <route edges="E21 E3 E6 E25 E29.307"/>
    </vehicle>
    <vehicle id="res_truck32" type="res_truck_truck" depart="576.00" departLane="best" departSpeed="max">
        <route edges="E21 E22 E30.558"/>
    </vehicle>
    <vehicle id="res_truck33" type="res_truck_truck" depart="594.00" departLane="best" departSpeed="max">
        <route edges="E21 E3 E1"/>
    </vehicle>
    <vehicle id="res_truck34" type="res_truck_truck" depart="612.00" departLane="best" departSpeed="max">
        <route edges="E21 E3 E4 E17"/>
    </vehicle>
    <vehicle id="res_truck35" type="res_truck_truck" depart="630.00" departLane="best" departSpeed="max">
        <route edges="E21 E3 E6"/>
    </vehicle>
    <vehicle id="res_truck36" type="res_truck_truck" depart="648.00" departLane="best" departSpeed="max">
        <route edges="E21 E22 E18.410"/>
    </vehicle>
    <vehicle id="res_truck37" type="res_truck_truck" depart="666.00" departLane="best" departSpeed="max">
        <route edges="E21 E22"/>
    </vehicle>
    <vehicle id="res_truck38" type="res_truck_truck" depart="684.00" departLane="best" departSpeed="max">
        <route edges="E21 E3"/>
    </vehicle>
    <vehicle id="res_truck39" type="res_truck_truck" depart="702.00" departLane="best" departSpeed="max">
        <route edges="E21 E3 E6 E14 E16.294"/>
    </vehicle>
    <vehicle id="res_truck40" type="res_truck_truck" depart="720.00" departLane="best" departSpeed="max">
        <route edges="E21 E3 E4 E17"/>
    </vehicle>
    <vehicle id="res_truck41" type="res_truck_truck" depart="738.00" departLane="best" departSpeed="max">
        <route edges="E21 E32 E27.479 E5"/>
    </vehicle>
    <vehicle id="res_truck42" type="res_truck_truck" depart="756.00" departLane="best" departSpeed="max">
        <route edges="E21 E3 E1 E15 E15.463"/>
    </vehicle>
    <vehicle id="res_truck43" type="res_truck_truck" depart="774.00" departLane="best" departSpeed="max">
        <route edges="E21 E3 E6 E25"/>
    </vehicle>
    <vehicle id="res_truck44" type="res_truck_truck" depart="792.00" departLane="best" departSpeed="max">
        <route edges="E21 E3 E1"/>
    </vehicle>
    <vehicle id="res_truck45" type="res_truck_truck" depart="810.00" departLane="best" departSpeed="max">
        <route edges="E21 E3 E4 E28"/>
    </vehicle>
    <vehicle id="res_truck46" type="res_truck_truck" depart="828.00" departLane="best" departSpeed="max">
        <route edges="E21 E22 E22.488"/>
    </vehicle>
    <vehicle id="res_truck47" type="res_truck_truck" depart="846.00" departLane="best" departSpeed="max">
        <route edges="E21 E3 E4 E17 E23.356 E20"/>
    </vehicle>
    <vehicle id="res_truck48" type="res_truck_truck" depart="864.00" departLane="best" departSpeed="max">
        <route edges="E21 E3 E1 E15 E25.506"/>
    </vehicle>
    <vehicle id="res_truck49" type="res_truck_truck" depart="882.00" departLane="best" departSpeed="max">
        <route edges="E21 E32 E32.461"/>
    </vehicle>
    <vehicle id="res_truck50" type="res_truck_truck" depart="900.00" departLane="best" departSpeed="max">
        <route edges="E21 E3"/>
    </vehicle>
    <vehicle id="res_truck51" type="res_truck_truck" depart="918.00" departLane="best" departSpeed="max">
        <route edges="E21 E3 E1 E15 E25.506"/>
    </vehicle>
    <vehicle id="res_truck52" type="res_truck_truck" depart="936.00" departLane="best" departSpeed="max">
        <route edges="E21 E3 E6 E14 E28.467"/>
    </vehicle>
    <vehicle id="res_truck53" type="res_truck_truck" depart="954.00" departLane="best" departSpeed="max">
        <route edges="E21 E22 E22.488"/>
    </vehicle>
    <vehicle id="res_truck54" type="res_truck_truck" depart="972.00" departLane="best" departSpeed="max">
        <route edges="E21 E3 E4"/>
    </vehicle>
    <vehicle id="res_truck55" type="res_truck_truck" depart="990.00" departLane="best" departSpeed="max">
        <route edges="E21 E3 E4 E17"/>
    </vehicle>
    <vehicle id="res_truck56" type="res_truck_truck" depart="1008.00" departLane="best" departSpeed="max">
        <route edges="E21 E3 E1 E15"/>
    </vehicle>
    <vehicle id="res_truck57" type="res_truck_truck" depart="1026.00" departLane="best" departSpeed="max">
        <route edges="E21 E3 E4"/>
    </vehicle>
    <vehicle id="res_truck58" type="res_truck_truck" depart="1044.00" departLane="best" departSpeed="max">
        <route edges="E21 E3 E6 E14 E28.467"/>
    </vehicle>
    <vehicle id="res_truck59" type="res_truck_truck" depart="1062.00" departLane="best" departSpeed="max">
        <route edges="E21 E3 E6 E14 E14.453"/>
    </vehicle>
    <vehicle id="res_truck60" type="res_truck_truck" depart="1080.00" departLane="best" departSpeed="max">
        <route edges="E21 E3 E1 E15 E25.506"/>
    </vehicle>
    <vehicle id="res_truck61" type="res_truck_truck" depart="1098.00" departLane="best" departSpeed="max">
        <route edges="E21 E3 E1 E15 E25.506"/>
    </vehicle>
    <vehicle id="res_truck62" type="res_truck_truck" depart="1116.00" departLane="best" departSpeed="max">
        <route edges="E21 E22 E18.410"/>
    </vehicle>
    <vehicle id="res_truck63" type="res_truck_truck" depart="1134.00" departLane="best" departSpeed="max">
        <route edges="E21 E3 E6"/>
    </vehicle>
    <vehicle id="res_truck64" type="res_truck_truck" depart="1152.00" departLane="best" departSpeed="max">
        <route edges="E21 E32"/>
    </vehicle>
    <vehicle id="res_truck65" type="res_truck_truck" depart="1170.00" departLane="best" departSpeed="max">
        <route edges="E21 E3 E4 E10"/>
    </vehicle>
    <vehicle id="res_truck66" type="res_truck_truck" depart="1188.00" departLane="best" departSpeed="max">
        <route edges="E21 E3 E4"/>
    </vehicle>
    <vehicle id="res_truck67" type="res_truck_truck" depart="1206.00" departLane="best" departSpeed="max">
        <route edges="E21 E3 E4 E28 E24.357"/>
    </vehicle>
    <vehicle id="res_truck68" type="res_truck_truck" depart="1224.00" departLane="best" departSpeed="max">
        <route edges="E21 E22 E30.558"/>
    </vehicle>
    <vehicle id="res_truck69" type="res_truck_truck" depart="1242.00" departLane="best" departSpeed="max">
        <route edges="E21 E3 E6 E14"/>
    </vehicle>
    <vehicle id="res_truck70" type="res_truck_truck" depart="1260.00" departLane="best" departSpeed="max">
        <route edges="E21 E3 E1 E15 E25.506"/>
    </vehicle>
    <vehicle id="res_truck71" type="res_truck_truck" depart="1278.00" departLane="best" departSpeed="max">
        <route edges="E21 E3 E4"/>
    </vehicle>
    <vehicle id="res_truck72" type="res_truck_truck" depart="1296.00" departLane="best" departSpeed="max">
        <route edges="E21 E3 E1 E15 E15.463"/>
    </vehicle>
    <vehicle id="res_truck73" type="res_truck_truck" depart="1314.00" departLane="best" departSpeed="max">
        <route edges="E21 E3 E1 E30"/>
    </vehicle>
    <vehicle id="res_truck74" type="res_truck_truck" depart="1332.00" departLane="best" departSpeed="max">
        <route edges="E21 E22 E18.410"/>
    </vehicle>
    <vehicle id="res_truck75" type="res_truck_truck" depart="1350.00" departLane="best" departSpeed="max">
        <route edges="E21 E3 E6 E14 E28.467"/>
    </vehicle>
    <vehicle id="res_truck76" type="res_truck_truck" depart="1368.00" departLane="best" departSpeed="max">
        <route edges="E21 E3 E6 E25"/>
    </vehicle>
    <vehicle id="res_truck77" type="res_truck_truck" depart="1386.00" departLane="best" departSpeed="max">
        <route edges="E21 E3 E6 E14 E16.294"/>
    </vehicle>
    <vehicle id="res_truck78" type="res_truck_truck" depart="1404.00" departLane="best" departSpeed="max">
        <route edges="E21 E32 E27.479"/>
    </vehicle>
    <vehicle id="res_truck79" type="res_truck_truck" depart="1422.00" departLane="best" departSpeed="max">
        <route edges="E21 E3 E1 E15 E15.463"/>
    </vehicle>
    <vehicle id="res_truck80" type="res_truck_truck" depart="1440.00" departLane="best" departSpeed="max">
        <route edges="E21 E3 E4 E28"/>
    </vehicle>
    <vehicle id="res_truck81" type="res_truck_truck" depart="1458.00" departLane="best" departSpeed="max">
        <route edges="E21 E32 E27.479 E5"/>
    </vehicle>
    <vehicle id="res_truck82" type="res_truck_truck" depart="1476.00" departLane="best" departSpeed="max">
        <route edges="E21 E3 E4 E10"/>
    </vehicle>
    <vehicle id="res_truck83" type="res_truck_truck" depart="1494.00" departLane="best" departSpeed="max">
        <route edges="E21 E3 E6 E25 E29.307"/>
    </vehicle>
    <vehicle id="res_truck84" type="res_truck_truck" depart="1512.00" departLane="best" departSpeed="max">
        <route edges="E21 E3 E6 E14"/>
    </vehicle>
    <vehicle id="res_truck85" type="res_truck_truck" depart="1530.00" departLane="best" departSpeed="max">
        <route edges="E21 E3 E1 E15 E26.415"/>
    </vehicle>
    <vehicle id="res_truck86" type="res_truck_truck" depart="1548.00" departLane="best" departSpeed="max">
        <route edges="E21 E3"/>
    </vehicle>
    <vehicle id="res_truck87" type="res_truck_truck" depart="1566.00" departLane="best" departSpeed="max">
        <route edges="E21 E3 E1 E15"/>
    </vehicle>
    <vehicle id="res_truck88" type="res_truck_truck" depart="1584.00" departLane="best" departSpeed="max">
        <route edges="E21 E22 E22.488"/>
    </vehicle>
    <vehicle id="res_truck89" type="res_truck_truck" depart="1602.00" departLane="best" departSpeed="max">
        <route edges="E21 E3"/>
    </vehicle>
    <vehicle id="res_truck90" type="res_truck_truck" depart="1620.00" departLane="best" departSpeed="max">
        <route edges="E21 E3 E6 E25 E29.307"/>
    </vehicle>
    <vehicle id="res_truck91" type="res_truck_truck" depart="1638.00" departLane="best" departSpeed="max">
        <route edges="E21 E3 E6 E13"/>
    </vehicle>
    <vehicle id="res_truck92" type="res_truck_truck" depart="1656.00" departLane="best" departSpeed="max">
        <route edges="E21 E32"/>
    </vehicle>
    <vehicle id="res_truck93" type="res_truck_truck" depart="1674.00" departLane="best" departSpeed="max">
        <route edges="E21 E3 E6 E14 E16.294"/>
    </vehicle>
    <vehicle id="res_truck94" type="res_truck_truck" depart="1692.00" departLane="best" departSpeed="max">
        <route edges="E21 E3"/>
    </vehicle>
    <vehicle id="res_truck95" type="res_truck_truck" depart="1710.00" departLane="best" departSpeed="max">
        <route edges="E21 E32 E17.564"/>
    </vehicle>
    <vehicle id="res_truck96" type="res_truck_truck" depart="1728.00" departLane="best" departSpeed="max">
        <route edges="E21 E3 E6"/>
    </vehicle>
    <vehicle id="res_truck97" type="res_truck_truck" depart="1746.00" departLane="best" departSpeed="max">
        <route edges="E21 E3 E4"/>
    </vehicle>
    <vehicle id="res_truck98" type="res_truck_truck" depart="1764.00" departLane="best" departSpeed="max">
        <route edges="E21 E3 E1"/>
    </vehicle>
    <vehicle id="res_truck99" type="res_truck_truck" depart="1782.00" departLane="best" departSpeed="max">
        <route edges="E21 E32 E32.461"/>
    </vehicle>
    <vehicle id="res_truck100" type="res_truck_truck" depart="1800.00" departLane="best" departSpeed="max">
        <route edges="E21 E3 E6"/>
    </vehicle>
    <vehicle id="res_truck101" type="res_truck_truck" depart="1818.00" departLane="best" departSpeed="max">
        <route edges="E21 E3 E6 E14 E14.453"/>
    </vehicle>
    <vehicle id="res_truck102" type="res_truck_truck" depart="1836.00" departLane="best" departSpeed="max">
        <route edges="E21 E3 E1 E15 E15.463"/>
    </vehicle>
    <vehicle id="res_truck103" type="res_truck_truck" depart="1854.00" departLane="best" departSpeed="max">
        <route edges="E21 E3 E4 E10"/>
    </vehicle>
    <vehicle id="res_truck104" type="res_truck_truck" depart="1872.00" departLane="best" departSpeed="max">
        <route edges="E21 E3 E1 E8"/>
    </vehicle>
    <vehicle id="res_truck105" type="res_truck_truck" depart="1890.00" departLane="best" departSpeed="max">
        <route edges="E21 E3"/>
    </vehicle>
    <vehicle id="res_truck106" type="res_truck_truck" depart="1908.00" departLane="best" departSpeed="max">
        <route edges="E21 E22 E22.488"/>
    </vehicle>
    <vehicle id="res_truck107" type="res_truck_truck" depart="1926.00" departLane="best" departSpeed="max">
        <route edges="E21 E3 E1 E8"/>
    </vehicle>
    <vehicle id="res_truck108" type="res_truck_truck" depart="1944.00" departLane="best" departSpeed="max">
        <route edges="E21 E3"/>
    </vehicle>
    <vehicle id="res_truck109" type="res_truck_truck" depart="1962.00" departLane="best" departSpeed="max">
        <route edges="E21 E32 E17.564"/>
    </vehicle>
    <vehicle id="res_truck110" type="res_truck_truck" depart="1980.00" departLane="best" departSpeed="max">
        <route edges="E21 E3 E1 E15 E26.415"/>
    </vehicle>
    <vehicle id="res_truck111" type="res_truck_truck" depart="1998.00" departLane="best" departSpeed="max">
        <route edges="E21 E3 E1 E30"/>
    </vehicle>
    <vehicle id="res_truck112" type="res_truck_truck" depart="2016.00" departLane="best" departSpeed="max">
        <route edges="E21 E32 E27.479"/>
    </vehicle>
    <vehicle id="res_truck113" type="res_truck_truck" depart="2034.00" departLane="best" departSpeed="max">
        <route edges="E21 E32 E32.461"/>
    </vehicle>
    <vehicle id="res_truck114" type="res_truck_truck" depart="2052.00" departLane="best" departSpeed="max">
        <route edges="E21 E3 E4"/>
    </vehicle>
    <vehicle id="res_truck115" type="res_truck_truck" depart="2070.00" departLane="best" departSpeed="max">
        <route edges="E21 E3 E1 E15"/>
    </vehicle>
    <vehicle id="res_truck116" type="res_truck_truck" depart="2088.00" departLane="best" departSpeed="max">
        <route edges="E21 E3 E6 E25 E29.307"/>
    </vehicle>
    <vehicle id="res_truck117" type="res_truck_truck" depart="2106.00" departLane="best" departSpeed="max">
        <route edges="E21 E3 E6 E14"/>
    </vehicle>
    <vehicle id="res_truck118" type="res_truck_truck" depart="2124.00" departLane="best" departSpeed="max">
        <route edges="E21 E3 E6 E14 E16.294"/>
    </vehicle>
    <vehicle id="res_truck119" type="res_truck_truck" depart="2142.00" departLane="best" departSpeed="max">
        <route edges="E21 E3 E4 E28"/>
    </vehicle>
    <vehicle id="res_truck120" type="res_truck_truck" depart="2160.00" departLane="best" departSpeed="max">
        <route edges="E21 E32 E27.479"/>
    </vehicle>
    <vehicle id="res_truck121" type="res_truck_truck" depart="2178.00" departLane="best" departSpeed="max">
        <route edges="E21 E3 E6"/>
    </vehicle>
    <vehicle id="res_truck122" type="res_truck_truck" depart="2196.00" departLane="best" departSpeed="max">
        <route edges="E21 E3"/>
    </vehicle>
    <vehicle id="res_truck123" type="res_truck_truck" depart="2214.00" departLane="best" departSpeed="max">
        <route edges="E21 E22"/>
    </vehicle>
    <vehicle id="res_truck124" type="res_truck_truck" depart="2232.00" departLane="best" departSpeed="max">
        <route edges="E21 E32 E17.564"/>
    </vehicle>
    <vehicle id="res_truck125" type="res_truck_truck" depart="2250.00" departLane="best" departSpeed="max">
        <route edges="E21 E22 E30.558"/>
    </vehicle>
    <vehicle id="res_truck126" type="res_truck_truck" depart="2268.00" departLane="best" departSpeed="max">
        <route edges="E21 E3"/>
    </vehicle>
    <vehicle id="res_truck127" type="res_truck_truck" depart="2286.00" departLane="best" departSpeed="max">
        <route edges="E21 E3 E1 E8"/>
    </vehicle>
    <vehicle id="res_truck128" type="res_truck_truck" depart="2304.00" departLane="best" departSpeed="max">
        <route edges="E21 E3 E1 E15 E15.463"/>
    </vehicle>
    <vehicle id="res_truck129" type="res_truck_truck" depart="2322.00" departLane="best" departSpeed="max">
        <route edges="E21 E3 E6"/>
    </vehicle>
    <vehicle id="res_truck130" type="res_truck_truck" depart="2340.00" departLane="best" departSpeed="max">
        <route edges="E21 E3 E4"/>
    </vehicle>
    <vehicle id="res_truck131" type="res_truck_truck" depart="2358.00" departLane="best" departSpeed="max">
        <route edges="E21 E3 E6 E14 E14.453"/>
    </vehicle>
    <vehicle id="res_truck132" type="res_truck_truck" depart="2376.00" departLane="best" departSpeed="max">
        <route edges="E21 E3"/>
    </vehicle>
    <vehicle id="res_truck133" type="res_truck_truck" depart="2394.00" departLane="best" departSpeed="max">
        <route edges="E21 E3 E1 E8"/>
    </vehicle>
    <vehicle id="res_truck134" type="res_truck_truck" depart="2412.00" departLane="best" departSpeed="max">
        <route edges="E21 E22 E18.410 E0"/>
    </vehicle>
    <vehicle id="res_truck135" type="res_truck_truck" depart="2430.00" departLane="best" departSpeed="max">
        <route edges="E21 E32 E17.564"/>
    </vehicle>
    <vehicle id="res_truck136" type="res_truck_truck" depart="2448.00" departLane="best" departSpeed="max">
        <route edges="E21 E3 E6"/>
    </vehicle>
    <vehicle id="res_truck137" type="res_truck_truck" depart="2466.00" departLane="best" departSpeed="max">
        <route edges="E21 E3 E6 E14"/>
    </vehicle>
    <vehicle id="res_truck138" type="res_truck_truck" depart="2484.00" departLane="best" departSpeed="max">
        <route edges="E21 E3 E1 E15 E25.506"/>
    </vehicle>
    <vehicle id="res_truck139" type="res_truck_truck" depart="2502.00" departLane="best" departSpeed="max">
        <route edges="E21 E32 E27.479"/>
    </vehicle>
    <vehicle id="res_truck140" type="res_truck_truck" depart="2520.00" departLane="best" departSpeed="max">
        <route edges="E21 E3 E1 E15 E15.463"/>
    </vehicle>
    <vehicle id="res_truck141" type="res_truck_truck" depart="2538.00" departLane="best" departSpeed="max">
        <route edges="E21 E3 E4 E17"/>
    </vehicle>
    <vehicle id="res_truck142" type="res_truck_truck" depart="2556.00" departLane="best" departSpeed="max">
        <route edges="E21 E32 E27.479 E5"/>
    </vehicle>
    <vehicle id="res_truck143" type="res_truck_truck" depart="2574.00" departLane="best" departSpeed="max">
        <route edges="E21 E3 E6 E13"/>
    </vehicle>
    <vehicle id="res_truck144" type="res_truck_truck" depart="2592.00" departLane="best" departSpeed="max">
        <route edges="E21 E3 E4 E17"/>
    </vehicle>
    <vehicle id="res_truck145" type="res_truck_truck" depart="2610.00" departLane="best" departSpeed="max">
        <route edges="E21 E22 E30.558"/>
    </vehicle>
    <vehicle id="res_truck146" type="res_truck_truck" depart="2628.00" departLane="best" departSpeed="max">
        <route edges="E21 E3 E4 E17"/>
    </vehicle>
    <vehicle id="res_truck147" type="res_truck_truck" depart="2646.00" departLane="best" departSpeed="max">
        <route edges="E21 E3 E1 E15 E25.506"/>
    </vehicle>
    <vehicle id="res_truck148" type="res_truck_truck" depart="2664.00" departLane="best" departSpeed="max">
        <route edges="E21 E22 E18.410 E0"/>
    </vehicle>
    <vehicle id="res_truck149" type="res_truck_truck" depart="2682.00" departLane="best" departSpeed="max">
        <route edges="E21 E3 E4"/>
    </vehicle>
    <vehicle id="res_truck150" type="res_truck_truck" depart="2700.00" departLane="best" departSpeed="max">
        <route edges="E21 E3 E1 E15 E25.506"/>
    </vehicle>
    <vehicle id="res_truck151" type="res_truck_truck" depart="2718.00" departLane="best" departSpeed="max">
        <route edges="E21 E3 E1 E15 E26.415"/>
    </vehicle>
    <vehicle id="res_truck152" type="res_truck_truck" depart="2736.00" departLane="best" departSpeed="max">
        <route edges="E21 E3 E6 E14"/>
    </vehicle>
    <vehicle id="res_truck153" type="res_truck_truck" depart="2754.00" departLane="best" departSpeed="max">
        <route edges="E21 E32 E27.479 E5"/>
    </vehicle>
    <vehicle id="res_truck154" type="res_truck_truck" depart="2772.00" departLane="best" departSpeed="max">
        <route edges="E21 E32 E32.461"/>
    </vehicle>
    <vehicle id="res_truck155" type="res_truck_truck" depart="2790.00" departLane="best" departSpeed="max">
        <route edges="E21 E3 E1 E15 E15.463"/>
    </vehicle>
    <vehicle id="res_truck156" type="res_truck_truck" depart="2808.00" departLane="best" departSpeed="max">
        <route edges="E21 E3 E6 E13"/>
    </vehicle>
    <vehicle id="res_truck157" type="res_truck_truck" depart="2826.00" departLane="best" departSpeed="max">
        <route edges="E21 E3 E4"/>
    </vehicle>
    <vehicle id="res_truck158" type="res_truck_truck" depart="2844.00" departLane="best" departSpeed="max">
        <route edges="E21 E3 E4 E28"/>
    </vehicle>
    <vehicle id="res_truck159" type="res_truck_truck" depart="2862.00" departLane="best" departSpeed="max">
        <route edges="E21 E3 E6"/>
    </vehicle>
    <vehicle id="res_truck160" type="res_truck_truck" depart="2880.00" departLane="best" departSpeed="max">
        <route edges="E21 E3 E1 E8"/>
    </vehicle>
    <vehicle id="res_truck161" type="res_truck_truck" depart="2898.00" departLane="best" departSpeed="max">
        <route edges="E21 E3 E4"/>
    </vehicle>
    <vehicle id="res_truck162" type="res_truck_truck" depart="2916.00" departLane="best" departSpeed="max">
        <route edges="E21 E3 E1 E30"/>
    </vehicle>
    <vehicle id="res_truck163" type="res_truck_truck" depart="2934.00" departLane="best" departSpeed="max">
        <route edges="E21 E3 E6"/>
    </vehicle>
    <vehicle id="res_truck164" type="res_truck_truck" depart="2952.00" departLane="best" departSpeed="max">
        <route edges="E21 E3 E4"/>
    </vehicle>
    <vehicle id="res_truck165" type="res_truck_truck" depart="2970.00" departLane="best" departSpeed="max">
        <route edges="E21 E3 E4 E17"/>
    </vehicle>
    <vehicle id="res_truck166" type="res_truck_truck" depart="2988.00" departLane="best" departSpeed="max">
        <route edges="E21 E3 E6 E13"/>
    </vehicle>
    <vehicle id="res_truck167" type="res_truck_truck" depart="3006.00" departLane="best" departSpeed="max">
        <route edges="E21 E32 E32.461"/>
    </vehicle>
    <vehicle id="res_truck168" type="res_truck_truck" depart="3024.00" departLane="best" departSpeed="max">
        <route edges="E21 E32"/>
    </vehicle>
    <vehicle id="res_truck169" type="res_truck_truck" depart="3042.00" departLane="best" departSpeed="max">
        <route edges="E21 E32 E17.564"/>
    </vehicle>
    <vehicle id="res_truck170" type="res_truck_truck" depart="3060.00" departLane="best" departSpeed="max">
        <route edges="E21 E3 E6 E14 E16.294"/>
    </vehicle>
    <vehicle id="res_truck171" type="res_truck_truck" depart="3078.00" departLane="best" departSpeed="max">
        <route edges="E21 E3 E1 E15"/>
    </vehicle>
    <vehicle id="res_truck172" type="res_truck_truck" depart="3096.00" departLane="best" departSpeed="max">
        <route edges="E21 E3 E4"/>
    </vehicle>
    <vehicle id="res_truck173" type="res_truck_truck" depart="3114.00" departLane="best" departSpeed="max">
        <route edges="E21 E32 E17.564"/>
    </vehicle>
    <vehicle id="res_truck174" type="res_truck_truck" depart="3132.00" departLane="best" departSpeed="max">
        <route edges="E21 E22"/>
    </vehicle>
    <vehicle id="res_truck175" type="res_truck_truck" depart="3150.00" departLane="best" departSpeed="max">
        <route edges="E21 E3 E1 E15 E25.506"/>
    </vehicle>
    <vehicle id="res_truck176" type="res_truck_truck" depart="3168.00" departLane="best" departSpeed="max">
        <route edges="E21 E3 E6 E14"/>
    </vehicle>
    <vehicle id="res_truck177" type="res_truck_truck" depart="3186.00" departLane="best" departSpeed="max">
        <route edges="E21 E3 E1 E15"/>
    </vehicle>
    <vehicle id="res_truck178" type="res_truck_truck" depart="3204.00" departLane="best" departSpeed="max">
        <route edges="E21 E3 E4 E17"/>
    </vehicle>
    <vehicle id="res_truck179" type="res_truck_truck" depart="3222.00" departLane="best" departSpeed="max">
        <route edges="E21 E22 E22.488"/>
    </vehicle>