<?xml version="1.0" encoding="UTF-8"?>

<!-- generated on 2025-07-24 12:08:54.863647 by randomTrips.py v1_23_1+0000-676720d13f6
<configuration>
    <net-file value="osm.net.xml.gz"/>
    <weights-prefix value="random_edge_priority"/>
    <output-trip-file value="osm.res_bike.trips.xml"/>
    <prefix value="res_bike"/>
    <trip-attributes value="departLane='best'"/>
    <fringe-start-attributes value="departSpeed='max'"/>
    <vehicle-class value="bicycle"/>
    <edge-permission value="bicycle"/>
    <remove-loops value="True"/>
    <validate value="True"/>
    <insertion-rate value="300.0"/>
</configuration>
-->

<routes xmlns:xsi="http://www.w3.org/2001/XMLSchema-instance" xsi:noNamespaceSchemaLocation="http://sumo.dlr.de/xsd/routes_file.xsd">
    <vType id="res_bike_bicycle" vClass="bicycle"/>
    <trip id="res_bike0" depart="0.00" from="E21" to="E14" departLane='best' type="res_bike_bicycle" departSpeed='max'/>
    <trip id="res_bike1" depart="12.00" from="E21" to="E30" departLane='best' type="res_bike_bicycle" departSpeed='max'/>
    <trip id="res_bike2" depart="24.00" from="E21" to="E1" departLane='best' type="res_bike_bicycle" departSpeed='max'/>
    <trip id="res_bike3" depart="36.00" from="E21" to="E25" departLane='best' type="res_bike_bicycle" departSpeed='max'/>
    <trip id="res_bike4" depart="48.00" from="E21" to="E13" departLane='best' type="res_bike_bicycle" departSpeed='max'/>
    <trip id="res_bike5" depart="60.00" from="E21" to="E25" departLane='best' type="res_bike_bicycle" departSpeed='max'/>
    <trip id="res_bike6" depart="72.00" from="E21" to="E28" departLane='best' type="res_bike_bicycle" departSpeed='max'/>
    <trip id="res_bike7" depart="84.00" from="E21" to="E30" departLane='best' type="res_bike_bicycle" departSpeed='max'/>
    <trip id="res_bike8" depart="96.00" from="E21" to="E13" departLane='best' type="res_bike_bicycle" departSpeed='max'/>
    <trip id="res_bike9" depart="108.00" from="E21" to="E17" departLane='best' type="res_bike_bicycle" departSpeed='max'/>
    <trip id="res_bike10" depart="120.00" from="E21" to="E1" departLane='best' type="res_bike_bicycle" departSpeed='max'/>
    <trip id="res_bike11" depart="132.00" from="E21" to="E3" departLane='best' type="res_bike_bicycle" departSpeed='max'/>
    <trip id="res_bike12" depart="144.00" from="E21" to="E32" departLane='best' type="res_bike_bicycle" departSpeed='max'/>
    <trip id="res_bike13" depart="156.00" from="E21" to="E8" departLane='best' type="res_bike_bicycle" departSpeed='max'/>
    <trip id="res_bike14" depart="168.00" from="E21" to="E28" departLane='best' type="res_bike_bicycle" departSpeed='max'/>
    <trip id="res_bike15" depart="180.00" from="E21" to="E3" departLane='best' type="res_bike_bicycle" departSpeed='max'/>
    <trip id="res_bike16" depart="192.00" from="E21" to="E28" departLane='best' type="res_bike_bicycle" departSpeed='max'/>
    <trip id="res_bike17" depart="204.00" from="E21" to="E15" departLane='best' type="res_bike_bicycle" departSpeed='max'/>
    <trip id="res_bike18" depart="216.00" from="E21" to="E14" departLane='best' type="res_bike_bicycle" departSpeed='max'/>
    <trip id="res_bike19" depart="228.00" from="E21" to="E15" departLane='best' type="res_bike_bicycle" departSpeed='max'/>
    <trip id="res_bike20" depart="240.00" from="E21" to="E14" departLane='best' type="res_bike_bicycle" departSpeed='max'/>
    <trip id="res_bike21" depart="252.00" from="E21" to="E3" departLane='best' type="res_bike_bicycle" departSpeed='max'/>
    <trip id="res_bike22" depart="264.00" from="E21" to="E32" departLane='best' type="res_bike_bicycle" departSpeed='max'/>
    <trip id="res_bike23" depart="276.00" from="E21" to="E3" departLane='best' type="res_bike_bicycle" departSpeed='max'/>
    <trip id="res_bike24" depart="288.00" from="E21" to="E30" departLane='best' type="res_bike_bicycle" departSpeed='max'/>
    <trip id="res_bike25" depart="300.00" from="E21" to="E4" departLane='best' type="res_bike_bicycle" departSpeed='max'/>
    <trip id="res_bike26" depart="312.00" from="E21" to="E15" departLane='best' type="res_bike_bicycle" departSpeed='max'/>
    <trip id="res_bike27" depart="324.00" from="E21" to="E17" departLane='best' type="res_bike_bicycle" departSpeed='max'/>
    <trip id="res_bike28" depart="336.00" from="E21" to="E22" departLane='best' type="res_bike_bicycle" departSpeed='max'/>
    <trip id="res_bike29" depart="348.00" from="E21" to="E14" departLane='best' type="res_bike_bicycle" departSpeed='max'/>
    <trip id="res_bike30" depart="360.00" from="E21" to="E15" departLane='best' type="res_bike_bicycle" departSpeed='max'/>
    <trip id="res_bike31" depart="372.00" from="E21" to="E6" departLane='best' type="res_bike_bicycle" departSpeed='max'/>
    <trip id="res_bike32" depart="384.00" from="E21" to="E14" departLane='best' type="res_bike_bicycle" departSpeed='max'/>
    <trip id="res_bike33" depart="396.00" from="E21" to="E25" departLane='best' type="res_bike_bicycle" departSpeed='max'/>
    <trip id="res_bike34" depart="408.00" from="E21" to="E3" departLane='best' type="res_bike_bicycle" departSpeed='max'/>
    <trip id="res_bike35" depart="420.00" from="E21" to="E25" departLane='best' type="res_bike_bicycle" departSpeed='max'/>
    <trip id="res_bike36" depart="432.00" from="E21" to="E6" departLane='best' type="res_bike_bicycle" departSpeed='max'/>
    <trip id="res_bike37" depart="444.00" from="E21" to="E32" departLane='best' type="res_bike_bicycle" departSpeed='max'/>
    <trip id="res_bike38" depart="456.00" from="E21" to="E25" departLane='best' type="res_bike_bicycle" departSpeed='max'/>
    <trip id="res_bike39" depart="468.00" from="E21" to="E3" departLane='best' type="res_bike_bicycle" departSpeed='max'/>
    <trip id="res_bike40" depart="480.00" from="E21" to="E8" departLane='best' type="res_bike_bicycle" departSpeed='max'/>
    <trip id="res_bike41" depart="492.00" from="E21" to="E15" departLane='best' type="res_bike_bicycle" departSpeed='max'/>
    <trip id="res_bike42" depart="504.00" from="E21" to="E13" departLane='best' type="res_bike_bicycle" departSpeed='max'/>
    <trip id="res_bike43" depart="516.00" from="E21" to="E6" departLane='best' type="res_bike_bicycle" departSpeed='max'/>
    <trip id="res_bike44" depart="528.00" from="E21" to="E3" departLane='best' type="res_bike_bicycle" departSpeed='max'/>
    <trip id="res_bike45" depart="540.00" from="E21" to="E13" departLane='best' type="res_bike_bicycle" departSpeed='max'/>
    <trip id="res_bike46" depart="552.00" from="E21" to="E25" departLane='best' type="res_bike_bicycle" departSpeed='max'/>
    <trip id="res_bike47" depart="564.00" from="E21" to="E25" departLane='best' type="res_bike_bicycle" departSpeed='max'/>
    <trip id="res_bike48" depart="576.00" from="E21" to="E17" departLane='best' type="res_bike_bicycle" departSpeed='max'/>
    <trip id="res_bike49" depart="588.00" from="E21" to="E1" departLane='best' type="res_bike_bicycle" departSpeed='max'/>
    <trip id="res_bike50" depart="600.00" from="E21" to="E22" departLane='best' type="res_bike_bicycle" departSpeed='max'/>
    <trip id="res_bike51" depart="612.00" from="E21" to="E4" departLane='best' type="res_bike_bicycle" departSpeed='max'/>
    <trip id="res_bike52" depart="624.00" from="E21" to="E10" departLane='best' type="res_bike_bicycle" departSpeed='max'/>
    <trip id="res_bike53" depart="636.00" from="E21" to="E25" departLane='best' type="res_bike_bicycle" departSpeed='max'/>
    <trip id="res_bike54" depart="648.00" from="E21" to="E6" departLane='best' type="res_bike_bicycle" departSpeed='max'/>
    <trip id="res_bike55" depart="660.00" from="E21" to="E14" departLane='best' type="res_bike_bicycle" departSpeed='max'/>
    <trip id="res_bike56" depart="672.00" from="E21" to="E32" departLane='best' type="res_bike_bicycle" departSpeed='max'/>
    <trip id="res_bike57" depart="684.00" from="E21" to="E17" departLane='best' type="res_bike_bicycle" departSpeed='max'/>
    <trip id="res_bike58" depart="696.00" from="E21" to="E3" departLane='best' type="res_bike_bicycle" departSpeed='max'/>
    <trip id="res_bike59" depart="708.00" from="E21" to="E25" departLane='best' type="res_bike_bicycle" departSpeed='max'/>
    <trip id="res_bike60" depart="720.00" from="E21" to="E14" departLane='best' type="res_bike_bicycle" departSpeed='max'/>
    <trip id="res_bike61" depart="732.00" from="E21" to="E28" departLane='best' type="res_bike_bicycle" departSpeed='max'/>
    <trip id="res_bike62" depart="744.00" from="E21" to="E14" departLane='best' type="res_bike_bicycle" departSpeed='max'/>
    <trip id="res_bike63" depart="756.00" from="E21" to="E3" departLane='best' type="res_bike_bicycle" departSpeed='max'/>
    <trip id="res_bike64" depart="768.00" from="E21" to="E1" departLane='best' type="res_bike_bicycle" departSpeed='max'/>
    <trip id="res_bike65" depart="780.00" from="E21" to="E30" departLane='best' type="res_bike_bicycle" departSpeed='max'/>
    <trip id="res_bike66" depart="792.00" from="E21" to="E10" departLane='best' type="res_bike_bicycle" departSpeed='max'/>
    <trip id="res_bike67" depart="804.00" from="E21" to="E28" departLane='best' type="res_bike_bicycle" departSpeed='max'/>
    <trip id="res_bike68" depart="816.00" from="E21" to="E4" departLane='best' type="res_bike_bicycle" departSpeed='max'/>
    <trip id="res_bike69" depart="828.00" from="E21" to="E13" departLane='best' type="res_bike_bicycle" departSpeed='max'/>
    <trip id="res_bike70" depart="840.00" from="E21" to="E22" departLane='best' type="res_bike_bicycle" departSpeed='max'/>
    <trip id="res_bike71" depart="852.00" from="E21" to="E30" departLane='best' type="res_bike_bicycle" departSpeed='max'/>
    <trip id="res_bike72" depart="864.00" from="E21" to="E1" departLane='best' type="res_bike_bicycle" departSpeed='max'/>
    <trip id="res_bike73" depart="876.00" from="E21" to="E17" departLane='best' type="res_bike_bicycle" departSpeed='max'/>
    <trip id="res_bike74" depart="888.00" from="E21" to="E14" departLane='best' type="res_bike_bicycle" departSpeed='max'/>
    <trip id="res_bike75" depart="900.00" from="E21" to="E15" departLane='best' type="res_bike_bicycle" departSpeed='max'/>
    <trip id="res_bike76" depart="912.00" from="E21" to="E6" departLane='best' type="res_bike_bicycle" departSpeed='max'/>
    <trip id="res_bike77" depart="924.00" from="E21" to="E1" departLane='best' type="res_bike_bicycle" departSpeed='max'/>
    <trip id="res_bike78" depart="936.00" from="E21" to="E13" departLane='best' type="res_bike_bicycle" departSpeed='max'/>
    <trip id="res_bike79" depart="948.00" from="E21" to="E14" departLane='best' type="res_bike_bicycle" departSpeed='max'/>
    <trip id="res_bike80" depart="960.00" from="E21" to="E1" departLane='best' type="res_bike_bicycle" departSpeed='max'/>
    <trip id="res_bike81" depart="972.00" from="E21" to="E8" departLane='best' type="res_bike_bicycle" departSpeed='max'/>
    <trip id="res_bike82" depart="984.00" from="E21" to="E4" departLane='best' type="res_bike_bicycle" departSpeed='max'/>
    <trip id="res_bike83" depart="996.00" from="E21" to="E8" departLane='best' type="res_bike_bicycle" departSpeed='max'/>
    <trip id="res_bike84" depart="1008.00" from="E21" to="E32" departLane='best' type="res_bike_bicycle" departSpeed='max'/>
    <trip id="res_bike85" depart="1020.00" from="E21" to="E15" departLane='best' type="res_bike_bicycle" departSpeed='max'/>
    <trip id="res_bike86" depart="1032.00" from="E21" to="E28" departLane='best' type="res_bike_bicycle" departSpeed='max'/>
    <trip id="res_bike87" depart="1044.00" from="E21" to="E32" departLane='best' type="res_bike_bicycle" departSpeed='max'/>
    <trip id="res_bike88" depart="1056.00" from="E21" to="E28" departLane='best' type="res_bike_bicycle" departSpeed='max'/>
    <trip id="res_bike89" depart="1068.00" from="E21" to="E6" departLane='best' type="res_bike_bicycle" departSpeed='max'/>
    <trip id="res_bike90" depart="1080.00" from="E21" to="E8" departLane='best' type="res_bike_bicycle" departSpeed='max'/>
    <trip id="res_bike91" depart="1092.00" from="E21" to="E13" departLane='best' type="res_bike_bicycle" departSpeed='max'/>
    <trip id="res_bike92" depart="1104.00" from="E21" to="E30" departLane='best' type="res_bike_bicycle" departSpeed='max'/>
    <trip id="res_bike93" depart="1116.00" from="E21" to="E10" departLane='best' type="res_bike_bicycle" departSpeed='max'/>
    <trip id="res_bike94" depart="1128.00" from="E21" to="E14" departLane='best' type="res_bike_bicycle" departSpeed='max'/>
    <trip id="res_bike95" depart="1140.00" from="E21" to="E3" departLane='best' type="res_bike_bicycle" departSpeed='max'/>
    <trip id="res_bike96" depart="1152.00" from="E21" to="E28" departLane='best' type="res_bike_bicycle" departSpeed='max'/>
    <trip id="res_bike97" depart="1164.00" from="E21" to="E32" departLane='best' type="res_bike_bicycle" departSpeed='max'/>
    <trip id="res_bike98" depart="1176.00" from="E21" to="E15" departLane='best' type="res_bike_bicycle" departSpeed='max'/>
    <trip id="res_bike99" depart="1188.00" from="E21" to="E4" departLane='best' type="res_bike_bicycle" departSpeed='max'/>
    <trip id="res_bike100" depart="1200.00" from="E21" to="E22" departLane='best' type="res_bike_bicycle" departSpeed='max'/>
    <trip id="res_bike101" depart="1212.00" from="E21" to="E8" departLane='best' type="res_bike_bicycle" departSpeed='max'/>
    <trip id="res_bike102" depart="1224.00" from="E21" to="E14" departLane='best' type="res_bike_bicycle" departSpeed='max'/>
    <trip id="res_bike103" depart="1236.00" from="E21" to="E6" departLane='best' type="res_bike_bicycle" departSpeed='max'/>
    <trip id="res_bike104" depart="1248.00" from="E21" to="E13" departLane='best' type="res_bike_bicycle" departSpeed='max'/>
    <trip id="res_bike105" depart="1260.00" from="E21" to="E32" departLane='best' type="res_bike_bicycle" departSpeed='max'/>
    <trip id="res_bike106" depart="1272.00" from="E21" to="E8" departLane='best' type="res_bike_bicycle" departSpeed='max'/>
    <trip id="res_bike107" depart="1284.00" from="E21" to="E15" departLane='best' type="res_bike_bicycle" departSpeed='max'/>
    <trip id="res_bike108" depart="1296.00" from="E21" to="E10" departLane='best' type="res_bike_bicycle" departSpeed='max'/>
    <trip id="res_bike109" depart="1308.00" from="E21" to="E28" departLane='best' type="res_bike_bicycle" departSpeed='max'/>
    <trip id="res_bike110" depart="1320.00" from="E21" to="E3" departLane='best' type="res_bike_bicycle" departSpeed='max'/>
    <trip id="res_bike111" depart="1332.00" from="E21" to="E14" departLane='best' type="res_bike_bicycle" departSpeed='max'/>
    <trip id="res_bike112" depart="1344.00" from="E21" to="E15" departLane='best' type="res_bike_bicycle" departSpeed='max'/>
    <trip id="res_bike113" depart="1356.00" from="E21" to="E1" departLane='best' type="res_bike_bicycle" departSpeed='max'/>
    <trip id="res_bike114" depart="1368.00" from="E21" to="E15" departLane='best' type="res_bike_bicycle" departSpeed='max'/>
    <trip id="res_bike115" depart="1380.00" from="E21" to="E4" departLane='best' type="res_bike_bicycle" departSpeed='max'/>
    <trip id="res_bike116" depart="1392.00" from="E21" to="E15" departLane='best' type="res_bike_bicycle" departSpeed='max'/>
    <trip id="res_bike117" depart="1404.00" from="E21" to="E28" departLane='best' type="res_bike_bicycle" departSpeed='max'/>
    <trip id="res_bike118" depart="1416.00" from="E21" to="E6" departLane='best' type="res_bike_bicycle" departSpeed='max'/>
    <trip id="res_bike119" depart="1428.00" from="E21" to="E25" departLane='best' type="res_bike_bicycle" departSpeed='max'/>
    <trip id="res_bike120" depart="1440.00" from="E21" to="E28" departLane='best' type="res_bike_bicycle" departSpeed='max'/>
    <trip id="res_bike121" depart="1452.00" from="E21" to="E10" departLane='best' type="res_bike_bicycle" departSpeed='max'/>
    <trip id="res_bike122" depart="1464.00" from="E21" to="E6" departLane='best' type="res_bike_bicycle" departSpeed='max'/>
    <trip id="res_bike123" depart="1476.00" from="E21" to="E6" departLane='best' type="res_bike_bicycle" departSpeed='max'/>
    <trip id="res_bike124" depart="1488.00" from="E21" to="E14" departLane='best' type="res_bike_bicycle" departSpeed='max'/>
    <trip id="res_bike125" depart="1500.00" from="E21" to="E10" departLane='best' type="res_bike_bicycle" departSpeed='max'/>
    <trip id="res_bike126" depart="1512.00" from="E21" to="E6" departLane='best' type="res_bike_bicycle" departSpeed='max'/>
    <trip id="res_bike127" depart="1524.00" from="E21" to="E3" departLane='best' type="res_bike_bicycle" departSpeed='max'/>
    <trip id="res_bike128" depart="1536.00" from="E21" to="E8" departLane='best' type="res_bike_bicycle" departSpeed='max'/>
    <trip id="res_bike129" depart="1548.00" from="E21" to="E6" departLane='best' type="res_bike_bicycle" departSpeed='max'/>
    <trip id="res_bike130" depart="1560.00" from="E21" to="E32" departLane='best' type="res_bike_bicycle" departSpeed='max'/>
    <trip id="res_bike131" depart="1572.00" from="E21" to="E6" departLane='best' type="res_bike_bicycle" departSpeed='max'/>
    <trip id="res_bike132" depart="1584.00" from="E21" to="E15" departLane='best' type="res_bike_bicycle" departSpeed='max'/>
    <trip id="res_bike133" depart="1596.00" from="E21" to="E10" departLane='best' type="res_bike_bicycle" departSpeed='max'/>
    <trip id="res_bike134" depart="1608.00" from="E21" to="E6" departLane='best' type="res_bike_bicycle" departSpeed='max'/>
    <trip id="res_bike135" depart="1620.00" from="E21" to="E17" departLane='best' type="res_bike_bicycle" departSpeed='max'/>
    <trip id="res_bike136" depart="1632.00" from="E21" to="E14" departLane='best' type="res_bike_bicycle" departSpeed='max'/>
    <trip id="res_bike137" depart="1644.00" from="E21" to="E13" departLane='best' type="res_bike_bicycle" departSpeed='max'/>
    <trip id="res_bike138" depart="1656.00" from="E21" to="E6" departLane='best' type="res_bike_bicycle" departSpeed='max'/>
    <trip id="res_bike139" depart="1668.00" from="E21" to="E15" departLane='best' type="res_bike_bicycle" departSpeed='max'/>
    <trip id="res_bike140" depart="1680.00" from="E21" to="E25" departLane='best' type="res_bike_bicycle" departSpeed='max'/>
    <trip id="res_bike141" depart="1692.00" from="E21" to="E10" departLane='best' type="res_bike_bicycle" departSpeed='max'/>
    <trip id="res_bike142" depart="1704.00" from="E21" to="E13" departLane='best' type="res_bike_bicycle" departSpeed='max'/>
    <trip id="res_bike143" depart="1716.00" from="E21" to="E15" departLane='best' type="res_bike_bicycle" departSpeed='max'/>
    <trip id="res_bike144" depart="1728.00" from="E21" to="E17" departLane='best' type="res_bike_bicycle" departSpeed='max'/>
    <trip id="res_bike145" depart="1740.00" from="E21" to="E25" departLane='best' type="res_bike_bicycle" departSpeed='max'/>
    <trip id="res_bike146" depart="1752.00" from="E21" to="E28" departLane='best' type="res_bike_bicycle" departSpeed='max'/>
    <trip id="res_bike147" depart="1764.00" from="E21" to="E32" departLane='best' type="res_bike_bicycle" departSpeed='max'/>
    <trip id="res_bike148" depart="1776.00" from="E21" to="E32" departLane='best' type="res_bike_bicycle" departSpeed='max'/>
    <trip id="res_bike149" depart="1788.00" from="E21" to="E30" departLane='best' type="res_bike_bicycle" departSpeed='max'/>
    <trip id="res_bike150" depart="1800.00" from="E21" to="E1" departLane='best' type="res_bike_bicycle" departSpeed='max'/>
    <trip id="res_bike151" depart="1812.00" from="E21" to="E17" departLane='best' type="res_bike_bicycle" departSpeed='max'/>
    <trip id="res_bike152" depart="1824.00" from="E21" to="E17" departLane='best' type="res_bike_bicycle" departSpeed='max'/>
    <trip id="res_bike153" depart="1836.00" from="E21" to="E15" departLane='best' type="res_bike_bicycle" departSpeed='max'/>
    <trip id="res_bike154" depart="1848.00" from="E21" to="E30" departLane='best' type="res_bike_bicycle" departSpeed='max'/>
    <trip id="res_bike155" depart="1860.00" from="E21" to="E3" departLane='best' type="res_bike_bicycle" departSpeed='max'/>
    <trip id="res_bike156" depart="1872.00" from="E21" to="E25" departLane='best' type="res_bike_bicycle" departSpeed='max'/>
    <trip id="res_bike157" depart="1884.00" from="E21" to="E15" departLane='best' type="res_bike_bicycle" departSpeed='max'/>
    <trip id="res_bike158" depart="1896.00" from="E21" to="E28" departLane='best' type="res_bike_bicycle" departSpeed='max'/>
    <trip id="res_bike159" depart="1908.00" from="E21" to="E22" departLane='best' type="res_bike_bicycle" departSpeed='max'/>
    <trip id="res_bike160" depart="1920.00" from="E21" to="E14" departLane='best' type="res_bike_bicycle" departSpeed='max'/>
    <trip id="res_bike161" depart="1932.00" from="E21" to="E13" departLane='best' type="res_bike_bicycle" departSpeed='max'/>
    <trip id="res_bike162" depart="1944.00" from="E21" to="E25" departLane='best' type="res_bike_bicycle" departSpeed='max'/>
    <trip id="res_bike163" depart="1956.00" from="E21" to="E17" departLane='best' type="res_bike_bicycle" departSpeed='max'/>
    <trip id="res_bike164" depart="1968.00" from="E21" to="E4" departLane='best' type="res_bike_bicycle" departSpeed='max'/>
    <trip id="res_bike165" depart="1980.00" from="E21" to="E14" departLane='best' type="res_bike_bicycle" departSpeed='max'/>
    <trip id="res_bike166" depart="1992.00" from="E21" to="E22" departLane='best' type="res_bike_bicycle" departSpeed='max'/>
    <trip id="res_bike167" depart="2004.00" from="E21" to="E1" departLane='best' type="res_bike_bicycle" departSpeed='max'/>
    <trip id="res_bike168" depart="2016.00" from="E21" to="E3" departLane='best' type="res_bike_bicycle" departSpeed='max'/>
    <trip id="res_bike169" depart="2028.00" from="E21" to="E30" departLane='best' type="res_bike_bicycle" departSpeed='max'/>
    <trip id="res_bike170" depart="2040.00" from="E21" to="E14" departLane='best' type="res_bike_bicycle" departSpeed='max'/>
    <trip id="res_bike171" depart="2052.00" from="E21" to="E4" departLane='best' type="res_bike_bicycle" departSpeed='max'/>
    <trip id="res_bike172" depart="2064.00" from="E21" to="E8" departLane='best' type="res_bike_bicycle" departSpeed='max'/>
    <trip id="res_bike173" depart="2076.00" from="E21" to="E1" departLane='best' type="res_bike_bicycle" departSpeed='max'/>
    <trip id="res_bike174" depart="2088.00" from="E21" to="E8" departLane='best' type="res_bike_bicycle" departSpeed='max'/>
    <trip id="res_bike175" depart="2100.00" from="E21" to="E8" departLane='best' type="res_bike_bicycle" departSpeed='max'/>
    <trip id="res_bike176" depart="2112.00" from="E21" to="E3" departLane='best' type="res_bike_bicycle" departSpeed='max'/>
    <trip id="res_bike177" depart="2124.00" from="E21" to="E25" departLane='best' type="res_bike_bicycle" departSpeed='max'/>
    <trip id="res_bike178" depart="2136.00" from="E21" to="E25" departLane='best' type="res_bike_bicycle" departSpeed='max'/>
    <trip id="res_bike179" depart="2148.00" from="E21" to="E32" departLane='best' type="res_bike_bicycle" departSpeed='max'/>
    <trip id="res_bike180" depart="2160.00" from="E21" to="E15" departLane='best' type="res_bike_bicycle" departSpeed='max'/>
    <trip id="res_bike181" depart="2172.00" from="E21" to="E3" departLane='best' type="res_bike_bicycle" departSpeed='max'/>
    <trip id="res_bike182" depart="2184.00" from="E21" to="E25" departLane='best' type="res_bike_bicycle" departSpeed='max'/>
    <trip id="res_bike183" depart="2196.00" from="E21" to="E15" departLane='best' type="res_bike_bicycle" departSpeed='max'/>
    <trip id="res_bike184" depart="2208.00" from="E21" to="E15" departLane='best' type="res_bike_bicycle" departSpeed='max'/>
    <trip id="res_bike185" depart="2220.00" from="E21" to="E17" departLane='best' type="res_bike_bicycle" departSpeed='max'/>
    <trip id="res_bike186" depart="2232.00" from="E21" to="E10" departLane='best' type="res_bike_bicycle" departSpeed='max'/>
    <trip id="res_bike187" depart="2244.00" from="E21" to="E30" departLane='best' type="res_bike_bicycle" departSpeed='max'/>
    <trip id="res_bike188" depart="2256.00" from="E21" to="E1" departLane='best' type="res_bike_bicycle" departSpeed='max'/>
    <trip id="res_bike189" depart="2268.00" from="E21" to="E25" departLane='best' type="res_bike_bicycle" departSpeed='max'/>
    <trip id="res_bike190" depart="2280.00" from="E21" to="E14" departLane='best' type="res_bike_bicycle" departSpeed='max'/>
    <trip id="res_bike191" depart="2292.00" from="E21" to="E30" departLane='best' type="res_bike_bicycle" departSpeed='max'/>
    <trip id="res_bike192" depart="2304.00" from="E21" to="E4" departLane='best' type="res_bike_bicycle" departSpeed='max'/>
    <trip id="res_bike193" depart="2316.00" from="E21" to="E4" departLane='best' type="res_bike_bicycle" departSpeed='max'/>
    <trip id="res_bike194" depart="2328.00" from="E21" to="E8" departLane='best' type="res_bike_bicycle" departSpeed='max'/>
    <trip id="res_bike195" depart="2340.00" from="E21" to="E32" departLane='best' type="res_bike_bicycle" departSpeed='max'/>
    <trip id="res_bike196" depart="2352.00" from="E21" to="E3" departLane='best' type="res_bike_bicycle" departSpeed='max'/>
    <trip id="res_bike197" depart="2364.00" from="E21" to="E14" departLane='best' type="res_bike_bicycle" departSpeed='max'/>
    <trip id="res_bike198" depart="2376.00" from="E21" to="E30" departLane='best' type="res_bike_bicycle" departSpeed='max'/>
    <trip id="res_bike199" depart="2388.00" from="E21" to="E13" departLane='best' type="res_bike_bicycle" departSpeed='max'/>
    <trip id="res_bike200" depart="2400.00" from="E21" to="E10" departLane='best' type="res_bike_bicycle" departSpeed='max'/>
    <trip id="res_bike201" depart="2412.00" from="E21" to="E28" departLane='best' type="res_bike_bicycle" departSpeed='max'/>
    <trip id="res_bike202" depart="2424.00" from="E21" to="E3" departLane='best' type="res_bike_bicycle" departSpeed='max'/>
    <trip id="res_bike203" depart="2436.00" from="E21" to="E22" departLane='best' type="res_bike_bicycle" departSpeed='max'/>
    <trip id="res_bike204" depart="2448.00" from="E21" to="E17" departLane='best' type="res_bike_bicycle" departSpeed='max'/>
    <trip id="res_bike205" depart="2460.00" from="E21" to="E1" departLane='best' type="res_bike_bicycle" departSpeed='max'/>
    <trip id="res_bike206" depart="2472.00" from="E21" to="E25" departLane='best' type="res_bike_bicycle" departSpeed='max'/>
    <trip id="res_bike207" depart="2484.00" from="E21" to="E17" departLane='best' type="res_bike_bicycle" departSpeed='max'/>
    <trip id="res_bike208" depart="2496.00" from="E21" to="E4" departLane='best' type="res_bike_bicycle" departSpeed='max'/>
    <trip id="res_bike209" depart="2508.00" from="E21" to="E4" departLane='best' type="res_bike_bicycle" departSpeed='max'/>
    <trip id="res_bike210" depart="2520.00" from="E21" to="E13" departLane='best' type="res_bike_bicycle" departSpeed='max'/>
    <trip id="res_bike211" depart="2532.00" from="E21" to="E13" departLane='best' type="res_bike_bicycle" departSpeed='max'/>
    <trip id="res_bike212" depart="2544.00" from="E21" to="E30" departLane='best' type="res_bike_bicycle" departSpeed='max'/>
    <trip id="res_bike213" depart="2556.00" from="E21" to="E14" departLane='best' type="res_bike_bicycle" departSpeed='max'/>
    <trip id="res_bike214" depart="2568.00" from="E21" to="E4" departLane='best' type="res_bike_bicycle" departSpeed='max'/>
    <trip id="res_bike215" depart="2580.00" from="E21" to="E3" departLane='best' type="res_bike_bicycle" departSpeed='max'/>
    <trip id="res_bike216" depart="2592.00" from="E21" to="E10" departLane='best' type="res_bike_bicycle" departSpeed='max'/>
    <trip id="res_bike217" depart="2604.00" from="E21" to="E8" departLane='best' type="res_bike_bicycle" departSpeed='max'/>
    <trip id="res_bike218" depart="2616.00" from="E21" to="E30" departLane='best' type="res_bike_bicycle" departSpeed='max'/>
    <trip id="res_bike219" depart="2628.00" from="E21" to="E1" departLane='best' type="res_bike_bicycle" departSpeed='max'/>
    <trip id="res_bike220" depart="2640.00" from="E21" to="E3" departLane='best' type="res_bike_bicycle" departSpeed='max'/>
    <trip id="res_bike221" depart="2652.00" from="E21" to="E4" departLane='best' type="res_bike_bicycle" departSpeed='max'/>
    <trip id="res_bike222" depart="2664.00" from="E21" to="E3" departLane='best' type="res_bike_bicycle" departSpeed='max'/>
    <trip id="res_bike223" depart="2676.00" from="E21" to="E8" departLane='best' type="res_bike_bicycle" departSpeed='max'/>
    <trip id="res_bike224" depart="2688.00" from="E21" to="E17" departLane='best' type="res_bike_bicycle" departSpeed='max'/>
    <trip id="res_bike225" depart="2700.00" from="E21" to="E17" departLane='best' type="res_bike_bicycle" departSpeed='max'/>
    <trip id="res_bike226" depart="2712.00" from="E21" to="E8" departLane='best' type="res_bike_bicycle" departSpeed='max'/>
    <trip id="res_bike227" depart="2724.00" from="E21" to="E8" departLane='best' type="res_bike_bicycle" departSpeed='max'/>
    <trip id="res_bike228" depart="2736.00" from="E21" to="E22" departLane='best' type="res_bike_bicycle" departSpeed='max'/>
    <trip id="res_bike229" depart="2748.00" from="E21" to="E32" departLane='best' type="res_bike_bicycle" departSpeed='max'/>
    <trip id="res_bike230" depart="2760.00" from="E21" to="E6" departLane='best' type="res_bike_bicycle" departSpeed='max'/>
    <trip id="res_bike231" depart="2772.00" from="E21" to="E1" departLane='best' type="res_bike_bicycle" departSpeed='max'/>
    <trip id="res_bike232" depart="2784.00" from="E21" to="E14" departLane='best' type="res_bike_bicycle" departSpeed='max'/>