<?xml version="1.0" encoding="UTF-8"?>

<!-- generated on 2025-07-19 11:35:42 by Eclipse SUMO sumo Version 1.23.1
-->

<sumoConfiguration xmlns:xsi="http://www.w3.org/2001/XMLSchema-instance" xsi:noNamespaceSchemaLocation="http://sumo.dlr.de/xsd/sumoConfiguration.xsd">

    <input>
        <net-file value="osm.net.xml.gz"/>
        <route-files value="osm.res_motorcycle.trips.xml"/>
        <additional-files value="osm.add.xml"/>
    </input>

</sumoConfiguration>
