<?xml version="1.0" encoding="UTF-8"?>

<!-- generated on 2025-07-19 12:00:07 by Eclipse SUMO duarouter Version 1.22.0
<duarouterConfiguration xmlns:xsi="http://www.w3.org/2001/XMLSchema-instance" xsi:noNamespaceSchemaLocation="http://sumo.dlr.de/xsd/duarouterConfiguration.xsd">

    <input>
        <net-file value="osm.net.xml.gz"/>
        <route-files value="osm.res_bike.trips.xml"/>
    </input>

    <output>
        <output-file value="osm.res_bike.rou.xml"/>
    </output>

</duarouterConfiguration>
-->

<routes xmlns:xsi="http://www.w3.org/2001/XMLSchema-instance" xsi:noNamespaceSchemaLocation="http://sumo.dlr.de/xsd/routes_file.xsd">
    <vehicle id="res_bike1" depart="47.37" departLane="best" departSpeed="max">
        <route edges="E16 E5 E6 E13"/>
    </vehicle>
    <vehicle id="res_bike3" depart="142.11" departLane="best">
        <route edges="E7 E1"/>
    </vehicle>
    <vehicle id="res_bike5" depart="236.84" departLane="best" departSpeed="max">
        <route edges="E12 E7 E2 E20"/>
    </vehicle>
    <vehicle id="res_bike6" depart="284.21" departLane="best">
        <route edges="E0 E6 E13"/>
    </vehicle>
    <vehicle id="res_bike8" depart="378.95" departLane="best" departSpeed="max">
        <route edges="E12 E7 E2 E22"/>
    </vehicle>
    <vehicle id="res_bike11" depart="521.05" departLane="best" departSpeed="max">
        <route edges="E18 E0 E4 E10"/>
    </vehicle>
    <vehicle id="res_bike12" depart="568.42" departLane="best" departSpeed="max">
        <route edges="E9 E15"/>
    </vehicle>
    <vehicle id="res_bike13" depart="615.79" departLane="best">
        <route edges="E1"/>
    </vehicle>
    <vehicle id="res_bike16" depart="757.89" departLane="best" departSpeed="max">
        <route edges="E21 E3 E1 E8"/>
    </vehicle>
    <vehicle id="res_bike17" depart="805.26" departLane="best" departSpeed="max">
        <route edges="E19 E7 E2 E20"/>
    </vehicle>
    <vehicle id="res_bike21" depart="994.74" departLane="best" departSpeed="max">
        <route edges="E12 E14"/>
    </vehicle>
    <vehicle id="res_bike24" depart="1136.84" departLane="best">
        <route edges="E3 E1 E15"/>
    </vehicle>
    <vehicle id="res_bike25" depart="1184.21" departLane="best" departSpeed="max">
        <route edges="E18 E0 E6 E13"/>
    </vehicle>
    <vehicle id="res_bike29" depart="1373.68" departLane="best" departSpeed="max">
        <route edges="E11 E17"/>
    </vehicle>
    <vehicle id="res_bike31" depart="1468.42" departLane="best" departSpeed="max">
        <route edges="E21 E3"/>
    </vehicle>
    <vehicle id="res_bike34" depart="1610.53" departLane="best" departSpeed="max">
        <route edges="E18 E0 E6 E14"/>
    </vehicle>
    <vehicle id="res_bike35" depart="1657.89" departLane="best" departSpeed="max">
        <route edges="E12 E7 E1 E8"/>
    </vehicle>
    <vehicle id="res_bike36" depart="1705.26" departLane="best">
        <route edges="E7 E1 E15"/>
    </vehicle>
    <vehicle id="res_bike37" depart="1752.63" departLane="best">
        <route edges="E3 E4 E17"/>
    </vehicle>
    <vehicle id="res_bike38" depart="1800.00" departLane="best">
        <route edges="E7 E2"/>
    </vehicle>
    <vehicle id="res_bike39" depart="1847.37" departLane="best" departSpeed="max">
        <route edges="E16 E5 E6 E13"/>
    </vehicle>
    <vehicle id="res_bike40" depart="1894.74" departLane="best" departSpeed="max">
        <route edges="E21 E3 E6 E14"/>
    </vehicle>
    <vehicle id="res_bike42" depart="1989.47" departLane="best" departSpeed="max">
        <route edges="E19 E13"/>
    </vehicle>
    <vehicle id="res_bike43" depart="2036.84" departLane="best" departSpeed="max">
        <route edges="E9 E0 E2 E20"/>
    </vehicle>
    <vehicle id="res_bike48" depart="2273.68" departLane="best" departSpeed="max">
        <route edges="E9 E0 E2 E20"/>
    </vehicle>
    <vehicle id="res_bike49" depart="2321.05" departLane="best" departSpeed="max">
        <route edges="E9 E0 E6"/>
    </vehicle>
    <vehicle id="res_bike50" depart="2368.42" departLane="best">
        <route edges="E0 E4"/>
    </vehicle>
    <vehicle id="res_bike56" depart="2652.63" departLane="best" departSpeed="max">
        <route edges="E21 E3 E4 E10"/>
    </vehicle>
    <vehicle id="res_bike59" depart="2794.74" departLane="best" departSpeed="max">
        <route edges="E23 E3 E4 E10"/>
    </vehicle>
    <vehicle id="res_bike60" depart="2842.11" departLane="best">
        <route edges="E5 E2 E20"/>
    </vehicle>
    <vehicle id="res_bike61" depart="2889.47" departLane="best">
        <route edges="E5 E2 E20"/>
    </vehicle>
    <vehicle id="res_bike66" depart="3126.32" departLane="best">
        <route edges="E7 E1 E8"/>
    </vehicle>
    <vehicle id="res_bike70" depart="3315.79" departLane="best">
        <route edges="E2 E20"/>
    </vehicle>
    <vehicle id="res_bike71" depart="3363.16" departLane="best" departSpeed="max">
        <route edges="E16 E5 E6"/>
    </vehicle>
    <vehicle id="res_bike72" depart="3410.53" departLane="best" departSpeed="max">
        <route edges="E19 E13"/>
    </vehicle>
    <vehicle id="res_bike73" depart="3457.89" departLane="best" departSpeed="max">
        <route edges="E21 E3 E4"/>
    </vehicle>
    <vehicle id="res_bike74" depart="3505.26" departLane="best" departSpeed="max">
        <route edges="E12 E14"/>
    </vehicle>
</routes>
