<?xml version="1.0" encoding="UTF-8"?>

<!-- generated on 2025-07-21 09:25:29.683977 by randomTrips.py v1_22_0+0002-63e50f52594
<configuration>
    <net-file value="osm.net.xml.gz"/>
    <output-trip-file value="osm.res_ped.trips.xml"/>
    <prefix value="res_ped"/>
    <trip-attributes value="departLane='best'"/>
    <fringe-start-attributes value="departSpeed='max'"/>
    <vclass value="pedestrian"/>
    <via-edge-types value="footway,path,sidewalk"/>
    <remove-loops value="True"/>
    <validate value="True"/>
    <insertion-rate value="200.0"/>
</configuration>
-->

<!-- generated on 2025-07-21 09:25:29 by Eclipse SUMO duarouter Version 1.22.0
<duarouterConfiguration xmlns:xsi="http://www.w3.org/2001/XMLSchema-instance" xsi:noNamespaceSchemaLocation="http://sumo.dlr.de/xsd/duarouterConfiguration.xsd">

    <input>
        <net-file value="osm.net.xml.gz"/>
        <route-files value="osm.res_ped.trips.xml"/>
    </input>

    <output>
        <output-file value="routes.rou.xml"/>
        <alternatives-output value="NUL"/>
    </output>

    <processing>
        <remove-loops value="true"/>
    </processing>

    <time>
        <begin value="0.0"/>
        <end value="3600.0"/>
    </time>

    <report>
        <no-warnings value="true"/>
        <ignore-errors value="true"/>
        <no-step-log value="true"/>
    </report>

</duarouterConfiguration>
-->

<routes xmlns:xsi="http://www.w3.org/2001/XMLSchema-instance" xsi:noNamespaceSchemaLocation="http://sumo.dlr.de/xsd/routes_file.xsd">
    <vehicle id="res_ped1" depart="18.00" departLane="best" departSpeed="max">
        <route edges="E16 E5 E6 E13"/>
    </vehicle>
    <vehicle id="res_ped3" depart="54.00" departLane="best">
        <route edges="E7 E1"/>
    </vehicle>
    <vehicle id="res_ped5" depart="90.00" departLane="best" departSpeed="max">
        <route edges="E12 E7 E2 E20"/>
    </vehicle>
    <vehicle id="res_ped6" depart="108.00" departLane="best">
        <route edges="E0 E6 E13"/>
    </vehicle>
    <vehicle id="res_ped8" depart="144.00" departLane="best" departSpeed="max">
        <route edges="E12 E7 E2 E22"/>
    </vehicle>
    <vehicle id="res_ped11" depart="198.00" departLane="best" departSpeed="max">
        <route edges="E18 E0 E4 E10"/>
    </vehicle>
    <vehicle id="res_ped12" depart="216.00" departLane="best" departSpeed="max">
        <route edges="E9 E15"/>
    </vehicle>
    <vehicle id="res_ped13" depart="234.00" departLane="best">
        <route edges="E1"/>
    </vehicle>
    <vehicle id="res_ped16" depart="288.00" departLane="best" departSpeed="max">
        <route edges="E21 E3 E1 E8"/>
    </vehicle>
    <vehicle id="res_ped17" depart="306.00" departLane="best" departSpeed="max">
        <route edges="E19 E7 E2 E20"/>
    </vehicle>
    <vehicle id="res_ped21" depart="378.00" departLane="best" departSpeed="max">
        <route edges="E12 E14"/>
    </vehicle>
    <vehicle id="res_ped24" depart="432.00" departLane="best">
        <route edges="E3 E1 E15"/>
    </vehicle>
    <vehicle id="res_ped25" depart="450.00" departLane="best" departSpeed="max">
        <route edges="E18 E0 E6 E13"/>
    </vehicle>
    <vehicle id="res_ped29" depart="522.00" departLane="best" departSpeed="max">
        <route edges="E11 E17"/>
    </vehicle>
    <vehicle id="res_ped31" depart="558.00" departLane="best" departSpeed="max">
        <route edges="E21 E3"/>
    </vehicle>
    <vehicle id="res_ped34" depart="612.00" departLane="best" departSpeed="max">
        <route edges="E18 E0 E6 E14"/>
    </vehicle>
    <vehicle id="res_ped35" depart="630.00" departLane="best" departSpeed="max">
        <route edges="E12 E7 E1 E8"/>
    </vehicle>
    <vehicle id="res_ped36" depart="648.00" departLane="best">
        <route edges="E7 E1 E15"/>
    </vehicle>
    <vehicle id="res_ped37" depart="666.00" departLane="best">
        <route edges="E3 E4 E17"/>
    </vehicle>
    <vehicle id="res_ped38" depart="684.00" departLane="best">
        <route edges="E7 E2"/>
    </vehicle>
    <vehicle id="res_ped39" depart="702.00" departLane="best" departSpeed="max">
        <route edges="E16 E5 E6 E13"/>
    </vehicle>
    <vehicle id="res_ped40" depart="720.00" departLane="best" departSpeed="max">
        <route edges="E21 E3 E6 E14"/>
    </vehicle>
    <vehicle id="res_ped42" depart="756.00" departLane="best" departSpeed="max">
        <route edges="E19 E13"/>
    </vehicle>
    <vehicle id="res_ped43" depart="774.00" departLane="best" departSpeed="max">
        <route edges="E9 E0 E2 E20"/>
    </vehicle>
    <vehicle id="res_ped48" depart="864.00" departLane="best" departSpeed="max">
        <route edges="E9 E0 E2 E20"/>
    </vehicle>
    <vehicle id="res_ped49" depart="882.00" departLane="best" departSpeed="max">
        <route edges="E9 E0 E6"/>
    </vehicle>
    <vehicle id="res_ped50" depart="900.00" departLane="best">
        <route edges="E0 E4"/>
    </vehicle>
    <vehicle id="res_ped56" depart="1008.00" departLane="best" departSpeed="max">
        <route edges="E21 E3 E4 E10"/>
    </vehicle>
    <vehicle id="res_ped59" depart="1062.00" departLane="best" departSpeed="max">
        <route edges="E23 E3 E4 E10"/>
    </vehicle>
    <vehicle id="res_ped60" depart="1080.00" departLane="best">
        <route edges="E5 E2 E20"/>
    </vehicle>
    <vehicle id="res_ped61" depart="1098.00" departLane="best">
        <route edges="E5 E2 E20"/>
    </vehicle>
    <vehicle id="res_ped66" depart="1188.00" departLane="best">
        <route edges="E7 E1 E8"/>
    </vehicle>
    <vehicle id="res_ped70" depart="1260.00" departLane="best">
        <route edges="E2 E20"/>
    </vehicle>
    <vehicle id="res_ped71" depart="1278.00" departLane="best" departSpeed="max">
        <route edges="E16 E5 E6"/>
    </vehicle>
    <vehicle id="res_ped72" depart="1296.00" departLane="best" departSpeed="max">
        <route edges="E19 E13"/>
    </vehicle>
    <vehicle id="res_ped73" depart="1314.00" departLane="best" departSpeed="max">
        <route edges="E21 E3 E4"/>
    </vehicle>
    <vehicle id="res_ped74" depart="1332.00" departLane="best" departSpeed="max">
        <route edges="E12 E14"/>
    </vehicle>
    <vehicle id="res_ped76" depart="1368.00" departLane="best">
        <route edges="E2 E20"/>
    </vehicle>
    <vehicle id="res_ped78" depart="1404.00" departLane="best" departSpeed="max">
        <route edges="E18 E0 E2 E22"/>
    </vehicle>
    <vehicle id="res_ped81" depart="1458.00" departLane="best" departSpeed="max">
        <route edges="E12 E7"/>
    </vehicle>
    <vehicle id="res_ped84" depart="1512.00" departLane="best" departSpeed="max">
        <route edges="E12 E7 E4 E10"/>
    </vehicle>
    <vehicle id="res_ped85" depart="1530.00" departLane="best">
        <route edges="E7 E2 E22"/>
    </vehicle>
    <vehicle id="res_ped87" depart="1566.00" departLane="best">
        <route edges="E5 E6 E13"/>
    </vehicle>
    <vehicle id="res_ped89" depart="1602.00" departLane="best" departSpeed="max">
        <route edges="E19 E7 E2"/>
    </vehicle>
    <vehicle id="res_ped92" depart="1656.00" departLane="best" departSpeed="max">
        <route edges="E19 E7 E1 E15"/>
    </vehicle>
    <vehicle id="res_ped93" depart="1674.00" departLane="best">
        <route edges="E6 E13"/>
    </vehicle>
    <vehicle id="res_ped94" depart="1692.00" departLane="best" departSpeed="max">
        <route edges="E12 E7 E2"/>
    </vehicle>
    <vehicle id="res_ped95" depart="1710.00" departLane="best" departSpeed="max">
        <route edges="E19 E14"/>
    </vehicle>
    <vehicle id="res_ped96" depart="1728.00" departLane="best" departSpeed="max">
        <route edges="E12 E7"/>
    </vehicle>
    <vehicle id="res_ped99" depart="1782.00" departLane="best" departSpeed="max">
        <route edges="E9 E0 E6"/>
    </vehicle>
    <vehicle id="res_ped104" depart="1872.00" departLane="best" departSpeed="max">
        <route edges="E19 E7 E1 E8"/>
    </vehicle>
    <vehicle id="res_ped105" depart="1890.00" departLane="best" departSpeed="max">
        <route edges="E16 E5"/>
    </vehicle>
    <vehicle id="res_ped108" depart="1944.00" departLane="best" departSpeed="max">
        <route edges="E21 E3 E4"/>
    </vehicle>
    <vehicle id="res_ped109" depart="1962.00" departLane="best" departSpeed="max">
        <route edges="E11 E5 E6 E14"/>
    </vehicle>
    <vehicle id="res_ped110" depart="1980.00" departLane="best" departSpeed="max">
        <route edges="E9 E0 E2 E22"/>
    </vehicle>
    <vehicle id="res_ped111" depart="1998.00" departLane="best" departSpeed="max">
        <route edges="E21 E3 E4"/>
    </vehicle>
    <vehicle id="res_ped112" depart="2016.00" departLane="best">
        <route edges="E0 E2 E22"/>
    </vehicle>
    <vehicle id="res_ped113" depart="2034.00" departLane="best" departSpeed="max">
        <route edges="E21 E3 E6"/>
    </vehicle>
    <vehicle id="res_ped114" depart="2052.00" departLane="best" departSpeed="max">
        <route edges="E11 E5 E1 E8"/>
    </vehicle>
    <vehicle id="res_ped116" depart="2088.00" departLane="best" departSpeed="max">
        <route edges="E23 E3"/>
    </vehicle>
    <vehicle id="res_ped117" depart="2106.00" departLane="best" departSpeed="max">
        <route edges="E12 E7 E1"/>
    </vehicle>
    <vehicle id="res_ped119" depart="2142.00" departLane="best" departSpeed="max">
        <route edges="E23 E22"/>
    </vehicle>
    <vehicle id="res_ped120" depart="2160.00" departLane="best" departSpeed="max">
        <route edges="E19 E7 E2 E22"/>
    </vehicle>
    <vehicle id="res_ped122" depart="2196.00" departLane="best" departSpeed="max">
        <route edges="E12 E7 E4"/>
    </vehicle>
    <vehicle id="res_ped123" depart="2214.00" departLane="best" departSpeed="max">
        <route edges="E12 E7 E4 E17"/>
    </vehicle>
    <vehicle id="res_ped124" depart="2232.00" departLane="best">
        <route edges="E3 E6 E14"/>
    </vehicle>
    <vehicle id="res_ped130" depart="2340.00" departLane="best">
        <route edges="E7"/>
    </vehicle>
    <vehicle id="res_ped131" depart="2358.00" departLane="best" departSpeed="max">
        <route edges="E18 E0 E4 E10"/>
    </vehicle>
    <vehicle id="res_ped133" depart="2394.00" departLane="best" departSpeed="max">
        <route edges="E23 E3 E1 E8"/>
    </vehicle>
    <vehicle id="res_ped135" depart="2430.00" departLane="best">
        <route edges="E6 E14"/>
    </vehicle>
    <vehicle id="res_ped136" depart="2448.00" departLane="best">
        <route edges="E3 E1 E8"/>
    </vehicle>
    <vehicle id="res_ped137" depart="2466.00" departLane="best" departSpeed="max">
        <route edges="E11 E5 E1"/>
    </vehicle>
    <vehicle id="res_ped139" depart="2502.00" departLane="best" departSpeed="max">
        <route edges="E16 E5 E2 E22"/>
    </vehicle>
    <vehicle id="res_ped141" depart="2538.00" departLane="best">
        <route edges="E3 E6 E14"/>
    </vehicle>
    <vehicle id="res_ped144" depart="2592.00" departLane="best" departSpeed="max">
        <route edges="E19 E14"/>
    </vehicle>
    <vehicle id="res_ped146" depart="2628.00" departLane="best">
        <route edges="E3 E6 E14"/>
    </vehicle>
    <vehicle id="res_ped150" depart="2700.00" departLane="best">
        <route edges="E7 E2 E20"/>
    </vehicle>
    <vehicle id="res_ped154" depart="2772.00" departLane="best">
        <route edges="E5 E6"/>
    </vehicle>
    <vehicle id="res_ped156" depart="2808.00" departLane="best" departSpeed="max">
        <route edges="E12 E7 E1"/>
    </vehicle>
    <vehicle id="res_ped158" depart="2844.00" departLane="best" departSpeed="max">
        <route edges="E19 E7 E2 E22"/>
    </vehicle>
    <vehicle id="res_ped162" depart="2916.00" departLane="best">
        <route edges="E0 E4"/>
    </vehicle>
    <vehicle id="res_ped164" depart="2952.00" departLane="best">
        <route edges="E5 E6"/>
    </vehicle>
    <vehicle id="res_ped165" depart="2970.00" departLane="best">
        <route edges="E5 E6 E14"/>
    </vehicle>
    <vehicle id="res_ped166" depart="2988.00" departLane="best">
        <route edges="E5 E1"/>
    </vehicle>
    <vehicle id="res_ped167" depart="3006.00" departLane="best">
        <route edges="E6"/>
    </vehicle>
    <vehicle id="res_ped170" depart="3060.00" departLane="best">
        <route edges="E5 E6 E13"/>
    </vehicle>
    <vehicle id="res_ped171" depart="3078.00" departLane="best">
        <route edges="E0 E6 E13"/>
    </vehicle>
    <vehicle id="res_ped172" depart="3096.00" departLane="best" departSpeed="max">
        <route edges="E18 E0 E6"/>
    </vehicle>
    <vehicle id="res_ped173" depart="3114.00" departLane="best" departSpeed="max">
        <route edges="E9 E0 E6 E14"/>
    </vehicle>
    <vehicle id="res_ped174" depart="3132.00" departLane="best">
        <route edges="E3 E4 E17"/>
    </vehicle>
    <vehicle id="res_ped175" depart="3150.00" departLane="best" departSpeed="max">
        <route edges="E9 E0 E2 E20"/>
    </vehicle>
    <vehicle id="res_ped177" depart="3186.00" departLane="best" departSpeed="max">
        <route edges="E9 E0 E4 E10"/>
    </vehicle>
    <vehicle id="res_ped178" depart="3204.00" departLane="best" departSpeed="max">
        <route edges="E9 E0 E6 E14"/>
    </vehicle>
    <vehicle id="res_ped181" depart="3258.00" departLane="best" departSpeed="max">
        <route edges="E23 E20"/>
    </vehicle>
    <vehicle id="res_ped182" depart="3276.00" departLane="best" departSpeed="max">
        <route edges="E19 E7 E2 E22"/>
    </vehicle>
    <vehicle id="res_ped185" depart="3330.00" departLane="best" departSpeed="max">
        <route edges="E21 E3 E4"/>
    </vehicle>
    <vehicle id="res_ped188" depart="3384.00" departLane="best">
        <route edges="E3 E1 E15"/>
    </vehicle>
    <vehicle id="res_ped189" depart="3402.00" departLane="best" departSpeed="max">
        <route edges="E18 E0 E6"/>
    </vehicle>
    <vehicle id="res_ped191" depart="3438.00" departLane="best" departSpeed="max">
        <route edges="E16 E17"/>
    </vehicle>
    <vehicle id="res_ped192" depart="3456.00" departLane="best" departSpeed="max">
        <route edges="E19 E14"/>
    </vehicle>
    <vehicle id="res_ped193" depart="3474.00" departLane="best" departSpeed="max">
        <route edges="E11 E17"/>
    </vehicle>
    <vehicle id="res_ped195" depart="3510.00" departLane="best">
        <route edges="E7 E2 E22"/>
    </vehicle>
    <vehicle id="res_ped196" depart="3528.00" departLane="best" departSpeed="max">
        <route edges="E16 E5 E2 E20"/>
    </vehicle>
    <vehicle id="res_ped197" depart="3546.00" departLane="best">
        <route edges="E0 E6 E14"/>
    </vehicle>
    <vehicle id="res_ped198" depart="3564.00" departLane="best" departSpeed="max">
        <route edges="E19 E7 E2 E22"/>
    </vehicle>
</routes>
