<?xml version="1.0" encoding="UTF-8"?>

<!-- generated on 2025-07-26 14:29:52.841884 by randomTrips.py UNKNOWN
<configuration>
    <net-file value="osm.net.xml.gz"/>
    <weights-prefix value="random_edge_priority"/>
    <output-trip-file value="osm.res_ped.trips.xml"/>
    <prefix value="res_ped"/>
    <trip-attributes value="departLane='best'"/>
    <fringe-start-attributes value="departSpeed='max'"/>
    <vclass value="pedestrian"/>
    <via-edge-types value="footway,path,sidewalk"/>
    <remove-loops value="True"/>
    <validate value="True"/>
    <insertion-rate value="400.0"/>
</configuration>
-->

<!-- generated on 2025-07-26 14:29:52 by Eclipse SUMO duarouter Version 1.22.0
<duarouterConfiguration xmlns:xsi="http://www.w3.org/2001/XMLSchema-instance" xsi:noNamespaceSchemaLocation="http://sumo.dlr.de/xsd/duarouterConfiguration.xsd">

    <input>
        <net-file value="osm.net.xml.gz"/>
        <route-files value="osm.res_ped.trips.xml"/>
    </input>

    <output>
        <output-file value="routes.rou.xml"/>
        <alternatives-output value="NUL"/>
    </output>

    <processing>
        <remove-loops value="true"/>
    </processing>

    <time>
        <begin value="0.0"/>
        <end value="3600.0"/>
    </time>

    <report>
        <no-warnings value="true"/>
        <ignore-errors value="true"/>
        <no-step-log value="true"/>
    </report>

</duarouterConfiguration>
-->

<routes xmlns:xsi="http://www.w3.org/2001/XMLSchema-instance" xsi:noNamespaceSchemaLocation="http://sumo.dlr.de/xsd/routes_file.xsd">
    <vehicle id="res_ped0" depart="0.00" departLane="best">
        <route edges="E22 E18.410 E0"/>
    </vehicle>
    <vehicle id="res_ped1" depart="9.00" departLane="best">
        <route edges="E17 E23.356 E3 E6 E14 E16.294"/>
    </vehicle>
    <vehicle id="res_ped2" depart="18.00" departLane="best">
        <route edges="E22 E18.410 E0"/>
    </vehicle>
    <vehicle id="res_ped5" depart="45.00" departLane="best" departSpeed="max">
        <route edges="E16 E24.357 E25"/>
    </vehicle>
    <vehicle id="res_ped7" depart="63.00" departLane="best">
        <route edges="E22 E18.410 E15 E25.506"/>
    </vehicle>
    <vehicle id="res_ped8" depart="72.00" departLane="best" departSpeed="max">
        <route edges="E16 E24.357 E7 E2 E32 E27.479"/>
    </vehicle>
    <vehicle id="res_ped9" depart="81.00" departLane="best" departSpeed="max">
        <route edges="E23 E23.356 E22 E18.410 E0"/>
    </vehicle>
    <vehicle id="res_ped10" depart="90.00" departLane="best" departSpeed="max">
        <route edges="E23 E23.356 E3"/>
    </vehicle>
    <vehicle id="res_ped11" depart="99.00" departLane="best" departSpeed="max">
        <route edges="E18 E31.622 E3 E6 E14 E14.453"/>
    </vehicle>
    <vehicle id="res_ped12" depart="108.00" departLane="best" departSpeed="max">
        <route edges="E9 E0 E2"/>
    </vehicle>
    <vehicle id="res_ped13" depart="117.00" departLane="best">
        <route edges="E13"/>
    </vehicle>
    <vehicle id="res_ped14" depart="126.00" departLane="best" departSpeed="max">
        <route edges="E23 E27.479"/>
    </vehicle>
    <vehicle id="res_ped15" depart="135.00" departLane="best" departSpeed="max">
        <route edges="E23 E23.356 E3 E1 E30"/>
    </vehicle>
    <vehicle id="res_ped16" depart="144.00" departLane="best" departSpeed="max">
        <route edges="E21 E22 E18.410 E8"/>
    </vehicle>
    <vehicle id="res_ped18" depart="162.00" departLane="best" departSpeed="max">
        <route edges="E23 E27.479 E28"/>
    </vehicle>
    <vehicle id="res_ped19" depart="171.00" departLane="best" departSpeed="max">
        <route edges="E23 E23.356 E22 E18.410 E15 E26.415"/>
    </vehicle>
    <vehicle id="res_ped20" depart="180.00" departLane="best">
        <route edges="E22 E18.410 E15"/>
    </vehicle>
    <vehicle id="res_ped21" depart="189.00" departLane="best" departSpeed="max">
        <route edges="E16 E16.294 E17 E17.564"/>
    </vehicle>
    <vehicle id="res_ped22" depart="198.00" departLane="best" departSpeed="max">
        <route edges="E12 E14 E16.294"/>
    </vehicle>
    <vehicle id="res_ped24" depart="216.00" departLane="best">
        <route edges="E2 E20"/>
    </vehicle>
    <vehicle id="res_ped26" depart="234.00" departLane="best">
        <route edges="E17 E23.356 E3 E6"/>
    </vehicle>
    <vehicle id="res_ped27" depart="243.00" departLane="best">
        <route edges="E2 E32 E27.479"/>
    </vehicle>
    <vehicle id="res_ped28" depart="252.00" departLane="best">
        <route edges="E1 E30"/>
    </vehicle>
    <vehicle id="res_ped29" depart="261.00" departLane="best">
        <route edges="E15 E26.415 E7 E2 E20"/>
    </vehicle>
    <vehicle id="res_ped30" depart="270.00" departLane="best" departSpeed="max">
        <route edges="E9 E0 E6 E14 E28.467"/>
    </vehicle>
    <vehicle id="res_ped31" depart="279.00" departLane="best" departSpeed="max">
        <route edges="E21 E3 E6 E25 E29.307"/>
    </vehicle>
    <vehicle id="res_ped32" depart="288.00" departLane="best" departSpeed="max">
        <route edges="E23 E23.356 E22 E30.558"/>
    </vehicle>
    <vehicle id="res_ped33" depart="297.00" departLane="best" departSpeed="max">
        <route edges="E16 E24.357 E7 E1"/>
    </vehicle>
    <vehicle id="res_ped34" depart="306.00" departLane="best" departSpeed="max">
        <route edges="E18 E31.622 E3 E4 E17"/>
    </vehicle>
    <vehicle id="res_ped35" depart="315.00" departLane="best">
        <route edges="E15 E26.415 E14"/>
    </vehicle>
    <vehicle id="res_ped37" depart="333.00" departLane="best">
        <route edges="E22"/>
    </vehicle>
    <vehicle id="res_ped39" depart="351.00" departLane="best">
        <route edges="E17 E23.356 E3 E6 E14 E16.294"/>
    </vehicle>
    <vehicle id="res_ped40" depart="360.00" departLane="best" departSpeed="max">
        <route edges="E21 E3 E4 E17"/>
    </vehicle>
    <vehicle id="res_ped41" depart="369.00" departLane="best" departSpeed="max">
        <route edges="E21 E32 E27.479 E5"/>
    </vehicle>
    <vehicle id="res_ped43" depart="387.00" departLane="best" departSpeed="max">
        <route edges="E9 E0 E6 E25"/>
    </vehicle>
    <vehicle id="res_ped44" depart="396.00" departLane="best" departSpeed="max">
        <route edges="E12 E7 E1"/>
    </vehicle>
    <vehicle id="res_ped46" depart="414.00" departLane="best" departSpeed="max">
        <route edges="E23 E23.356 E22 E22.488"/>
    </vehicle>
    <vehicle id="res_ped47" depart="423.00" departLane="best" departSpeed="max">
        <route edges="E12 E7 E2 E20"/>
    </vehicle>
    <vehicle id="res_ped48" depart="432.00" departLane="best" departSpeed="max">
        <route edges="E9 E15 E25.506"/>
    </vehicle>
    <vehicle id="res_ped49" depart="441.00" departLane="best" departSpeed="max">
        <route edges="E9 E0 E2 E32 E32.461"/>
    </vehicle>
    <vehicle id="res_ped51" depart="459.00" departLane="best">
        <route edges="E22 E18.410 E15 E25.506"/>
    </vehicle>
    <vehicle id="res_ped52" depart="468.00" departLane="best">
        <route edges="E17 E23.356 E3 E6 E14 E28.467"/>
    </vehicle>
    <vehicle id="res_ped56" depart="504.00" departLane="best" departSpeed="max">
        <route edges="E21 E22 E18.410 E15"/>
    </vehicle>
    <vehicle id="res_ped58" depart="522.00" departLane="best" departSpeed="max">
        <route edges="E18 E31.622 E3 E6 E14 E28.467"/>
    </vehicle>
    <vehicle id="res_ped59" depart="531.00" departLane="best">
        <route edges="E22 E18.410 E0 E6 E14 E14.453"/>
    </vehicle>
    <vehicle id="res_ped60" depart="540.00" departLane="best" departSpeed="max">
        <route edges="E23 E23.356 E22 E18.410 E15 E25.506"/>
    </vehicle>
    <vehicle id="res_ped61" depart="549.00" departLane="best" departSpeed="max">
        <route edges="E23 E23.356 E22 E18.410 E15 E25.506"/>
    </vehicle>
    <vehicle id="res_ped65" depart="585.00" departLane="best" departSpeed="max">
        <route edges="E18 E31.622 E3 E4 E10"/>
    </vehicle>
    <vehicle id="res_ped67" depart="603.00" departLane="best" departSpeed="max">
        <route edges="E12 E7"/>
    </vehicle>
    <vehicle id="res_ped68" depart="612.00" departLane="best" departSpeed="max">
        <route edges="E12 E7 E2 E22 E30.558"/>
    </vehicle>
    <vehicle id="res_ped69" depart="621.00" departLane="best" departSpeed="max">
        <route edges="E23 E27.479 E5 E6 E14"/>
    </vehicle>
    <vehicle id="res_ped71" depart="639.00" departLane="best">
        <route edges="E17 E23.356 E3 E4"/>
    </vehicle>
    <vehicle id="res_ped73" depart="657.00" departLane="best" departSpeed="max">
        <route edges="E21 E3 E1 E30"/>
    </vehicle>
    <vehicle id="res_ped74" depart="666.00" departLane="best">
        <route edges="E15 E26.415 E7 E2 E22 E18.410"/>
    </vehicle>
    <vehicle id="res_ped75" depart="675.00" departLane="best" departSpeed="max">
        <route edges="E9 E0 E6 E14 E28.467"/>
    </vehicle>
    <vehicle id="res_ped78" depart="702.00" departLane="best" departSpeed="max">
        <route edges="E18 E31.622 E32 E27.479"/>
    </vehicle>
    <vehicle id="res_ped79" depart="711.00" departLane="best" departSpeed="max">
        <route edges="E16 E24.357 E25 E15.463"/>
    </vehicle>
    <vehicle id="res_ped80" depart="720.00" departLane="best" departSpeed="max">
        <route edges="E12 E7 E4 E28"/>
    </vehicle>
    <vehicle id="res_ped81" depart="729.00" departLane="best" departSpeed="max">
        <route edges="E16 E16.294 E5"/>
    </vehicle>
    <vehicle id="res_ped82" depart="738.00" departLane="best" departSpeed="max">
        <route edges="E23 E27.479 E10"/>
    </vehicle>
    <vehicle id="res_ped83" depart="747.00" departLane="best" departSpeed="max">
        <route edges="E16 E24.357 E25 E29.307"/>
    </vehicle>
    <vehicle id="res_ped84" depart="756.00" departLane="best">
        <route edges="E15 E26.415 E14"/>
    </vehicle>
    <vehicle id="res_ped85" depart="765.00" departLane="best" departSpeed="max">
        <route edges="E9 E15 E26.415"/>
    </vehicle>
    <vehicle id="res_ped87" depart="783.00" departLane="best" departSpeed="max">
        <route edges="E23 E23.356 E22 E18.410 E15"/>
    </vehicle>
    <vehicle id="res_ped90" depart="810.00" departLane="best">
        <route edges="E22 E18.410 E0"/>
    </vehicle>
    <vehicle id="res_ped91" depart="819.00" departLane="best" departSpeed="max">
        <route edges="E9 E0 E6 E13"/>
    </vehicle>
    <vehicle id="res_ped93" depart="837.00" departLane="best" departSpeed="max">
        <route edges="E23 E27.479 E5"/>
    </vehicle>
    <vehicle id="res_ped94" depart="846.00" departLane="best">
        <route edges="E15 E26.415 E7 E4 E17 E23.356"/>
    </vehicle>
    <vehicle id="res_ped96" depart="864.00" departLane="best">
        <route edges="E17 E23.356 E3 E6"/>
    </vehicle>
    <vehicle id="res_ped98" depart="882.00" departLane="best" departSpeed="max">
        <route edges="E21 E3 E1"/>
    </vehicle>
    <vehicle id="res_ped99" depart="891.00" departLane="best" departSpeed="max">
        <route edges="E9 E0 E2 E32 E32.461"/>
    </vehicle>
    <vehicle id="res_ped100" depart="900.00" departLane="best" departSpeed="max">
        <route edges="E9 E0 E6"/>
    </vehicle>
    <vehicle id="res_ped101" depart="909.00" departLane="best" departSpeed="max">
        <route edges="E23 E27.479 E28 E14.453"/>
    </vehicle>
    <vehicle id="res_ped102" depart="918.00" departLane="best" departSpeed="max">
        <route edges="E21 E22 E18.410 E15 E15.463"/>
    </vehicle>
    <vehicle id="res_ped105" depart="945.00" departLane="best">
        <route edges="E17 E23.356 E3"/>
    </vehicle>
    <vehicle id="res_ped107" depart="963.00" departLane="best" departSpeed="max">
        <route edges="E9 E15 E26.415 E7 E1 E8"/>
    </vehicle>
    <vehicle id="res_ped108" depart="972.00" departLane="best" departSpeed="max">
        <route edges="E21 E3"/>
    </vehicle>
    <vehicle id="res_ped109" depart="981.00" departLane="best">
        <route edges="E15 E26.415 E7 E4 E17 E17.564"/>
    </vehicle>
    <vehicle id="res_ped110" depart="990.00" departLane="best" departSpeed="max">
        <route edges="E9 E15 E26.415"/>
    </vehicle>
    <vehicle id="res_ped111" depart="999.00" departLane="best" departSpeed="max">
        <route edges="E21 E3 E1 E30"/>
    </vehicle>
    <vehicle id="res_ped112" depart="1008.00" departLane="best" departSpeed="max">
        <route edges="E11 E5"/>
    </vehicle>
    <vehicle id="res_ped113" depart="1017.00" departLane="best" departSpeed="max">
        <route edges="E21 E32 E32.461"/>
    </vehicle>
    <vehicle id="res_ped114" depart="1026.00" departLane="best">
        <route edges="E15 E26.415 E7"/>
    </vehicle>
    <vehicle id="res_ped115" depart="1035.00" departLane="best" departSpeed="max">
        <route edges="E12 E7 E1 E15"/>
    </vehicle>
    <vehicle id="res_ped116" depart="1044.00" departLane="best" departSpeed="max">
        <route edges="E21 E3 E6 E25 E29.307"/>
    </vehicle>
    <vehicle id="res_ped117" depart="1053.00" departLane="best" departSpeed="max">
        <route edges="E16 E16.294"/>
    </vehicle>
    <vehicle id="res_ped119" depart="1071.00" departLane="best" departSpeed="max">
        <route edges="E21 E3 E4 E28"/>
    </vehicle>
    <vehicle id="res_ped121" depart="1089.00" departLane="best" departSpeed="max">
        <route edges="E21 E3 E6"/>
    </vehicle>
    <vehicle id="res_ped122" depart="1098.00" departLane="best">
        <route edges="E15 E26.415 E7 E4"/>
    </vehicle>
    <vehicle id="res_ped123" depart="1107.00" departLane="best" departSpeed="max">
        <route edges="E16 E24.357 E7 E2 E22"/>
    </vehicle>
    <vehicle id="res_ped124" depart="1116.00" departLane="best">
        <route edges="E22 E18.410 E0 E4 E17 E17.564"/>
    </vehicle>
    <vehicle id="res_ped125" depart="1125.00" departLane="best" departSpeed="max">
        <route edges="E18 E18.410 E0 E2 E22 E30.558"/>
    </vehicle>
    <vehicle id="res_ped126" depart="1134.00" departLane="best" departSpeed="max">
        <route edges="E12 E7 E4 E17 E23.356"/>
    </vehicle>
    <vehicle id="res_ped127" depart="1143.00" departLane="best" departSpeed="max">
        <route edges="E9 E15 E26.415 E7 E1 E8"/>
    </vehicle>
    <vehicle id="res_ped128" depart="1152.00" departLane="best" departSpeed="max">
        <route edges="E12 E25 E15.463"/>
    </vehicle>
    <vehicle id="res_ped129" depart="1161.00" departLane="best">
        <route edges="E17 E23.356 E3 E6"/>
    </vehicle>
    <vehicle id="res_ped132" depart="1188.00" departLane="best" departSpeed="max">
        <route edges="E23 E23.356 E3"/>
    </vehicle>
    <vehicle id="res_ped133" depart="1197.00" departLane="best">
        <route edges="E22 E18.410 E8"/>
    </vehicle>
    <vehicle id="res_ped134" depart="1206.00" departLane="best">
        <route edges="E22 E18.410 E0"/>
    </vehicle>
    <vehicle id="res_ped135" depart="1215.00" departLane="best" departSpeed="max">
        <route edges="E23 E17.564"/>
    </vehicle>
    <vehicle id="res_ped136" depart="1224.00" departLane="best">
        <route edges="E22 E18.410 E0 E6"/>
    </vehicle>
    <vehicle id="res_ped137" depart="1233.00" departLane="best">
        <route edges="E14"/>
    </vehicle>
    <vehicle id="res_ped139" depart="1251.00" departLane="best">
        <route edges="E17 E23.356 E22 E18.410 E0 E2 E32 E27.479"/>
    </vehicle>
    <vehicle id="res_ped140" depart="1260.00" departLane="best">
        <route edges="E22 E18.410 E15 E15.463"/>
    </vehicle>
    <vehicle id="res_ped141" depart="1269.00" departLane="best">
        <route edges="E22 E18.410 E0 E4 E17"/>
    </vehicle>
    <vehicle id="res_ped142" depart="1278.00" departLane="best" departSpeed="max">
        <route edges="E21 E32 E27.479 E5"/>
    </vehicle>
    <vehicle id="res_ped143" depart="1287.00" departLane="best" departSpeed="max">
        <route edges="E23 E27.479 E5 E6 E13"/>
    </vehicle>
    <vehicle id="res_ped146" depart="1314.00" departLane="best">
        <route edges="E22 E18.410 E0 E4 E17"/>
    </vehicle>
    <vehicle id="res_ped147" depart="1323.00" departLane="best" departSpeed="max">
        <route edges="E23 E23.356 E22 E18.410 E15 E25.506"/>
    </vehicle>
    <vehicle id="res_ped149" depart="1341.00" departLane="best" departSpeed="max">
        <route edges="E12 E7 E4"/>
    </vehicle>
    <vehicle id="res_ped151" depart="1359.00" departLane="best" departSpeed="max">
        <route edges="E23 E23.356 E22 E18.410 E15 E26.415"/>
    </vehicle>
    <vehicle id="res_ped152" depart="1368.00" departLane="best">
        <route edges="E14"/>
    </vehicle>
    <vehicle id="res_ped153" depart="1377.00" departLane="best" departSpeed="max">
        <route edges="E18 E31.622 E32 E27.479 E5"/>
    </vehicle>
    <vehicle id="res_ped154" depart="1386.00" departLane="best" departSpeed="max">
        <route edges="E23 E23.356 E3 E4 E17 E32.461"/>
    </vehicle>
    <vehicle id="res_ped156" depart="1404.00" departLane="best">
        <route edges="E17 E23.356 E3 E6 E13"/>
    </vehicle>
    <vehicle id="res_ped157" depart="1413.00" departLane="best" departSpeed="max">
        <route edges="E23 E23.356 E3 E4"/>
    </vehicle>
    <vehicle id="res_ped159" depart="1431.00" departLane="best">
        <route edges="E15 E26.415 E14"/>
    </vehicle>
    <vehicle id="res_ped160" depart="1440.00" departLane="best" departSpeed="max">
        <route edges="E23 E23.356 E22 E18.410 E8"/>
    </vehicle>
    <vehicle id="res_ped161" depart="1449.00" departLane="best" departSpeed="max">
        <route edges="E23 E23.356 E3 E4"/>
    </vehicle>
    <vehicle id="res_ped163" depart="1467.00" departLane="best" departSpeed="max">
        <route edges="E18 E31.622 E3 E6"/>
    </vehicle>
    <vehicle id="res_ped164" depart="1476.00" departLane="best" departSpeed="max">
        <route edges="E23 E23.356 E3 E4"/>
    </vehicle>
    <vehicle id="res_ped165" depart="1485.00" departLane="best" departSpeed="max">
        <route edges="E23 E23.356"/>
    </vehicle>
    <vehicle id="res_ped166" depart="1494.00" departLane="best" departSpeed="max">
        <route edges="E23 E27.479 E5 E6 E13"/>
    </vehicle>
    <vehicle id="res_ped168" depart="1512.00" departLane="best" departSpeed="max">
        <route edges="E16 E24.357 E7 E2 E32"/>
    </vehicle>
    <vehicle id="res_ped170" depart="1530.00" departLane="best" departSpeed="max">
        <route edges="E23 E27.479 E5"/>
    </vehicle>
    <vehicle id="res_ped172" depart="1548.00" departLane="best" departSpeed="max">
        <route edges="E18 E31.622 E3 E4"/>
    </vehicle>
    <vehicle id="res_ped173" depart="1557.00" departLane="best" departSpeed="max">
        <route edges="E9 E0 E4 E17 E17.564"/>
    </vehicle>
    <vehicle id="res_ped174" depart="1566.00" departLane="best">
        <route edges="E22"/>
    </vehicle>
    <vehicle id="res_ped175" depart="1575.00" departLane="best" departSpeed="max">
        <route edges="E9 E15 E25.506"/>
    </vehicle>
    <vehicle id="res_ped176" depart="1584.00" departLane="best" departSpeed="max">
        <route edges="E9 E0 E6 E14"/>
    </vehicle>
    <vehicle id="res_ped177" depart="1593.00" departLane="best" departSpeed="max">
        <route edges="E9 E15"/>
    </vehicle>
    <vehicle id="res_ped178" depart="1602.00" departLane="best" departSpeed="max">
        <route edges="E9 E0 E4 E17"/>
    </vehicle>
    <vehicle id="res_ped180" depart="1620.00" departLane="best">
        <route edges="E22 E18.410"/>
    </vehicle>
    <vehicle id="res_ped181" depart="1629.00" departLane="best" departSpeed="max">
        <route edges="E21 E3 E6 E25"/>
    </vehicle>
    <vehicle id="res_ped183" depart="1647.00" departLane="best">
        <route edges="E17 E23.356 E3"/>
    </vehicle>
    <vehicle id="res_ped185" depart="1665.00" departLane="best" departSpeed="max">
        <route edges="E21 E3"/>
    </vehicle>
    <vehicle id="res_ped186" depart="1674.00" departLane="best" departSpeed="max">
        <route edges="E23 E27.479 E5 E6 E25 E29.307"/>
    </vehicle>
    <vehicle id="res_ped188" depart="1692.00" departLane="best">
        <route edges="E22 E18.410"/>
    </vehicle>
    <vehicle id="res_ped189" depart="1701.00" departLane="best" departSpeed="max">
        <route edges="E18 E31.622 E32 E32.461"/>
    </vehicle>
    <vehicle id="res_ped190" depart="1710.00" departLane="best">
        <route edges="E22 E18.410 E0 E4 E17 E17.564"/>
    </vehicle>
    <vehicle id="res_ped191" depart="1719.00" departLane="best" departSpeed="max">
        <route edges="E18 E18.410"/>
    </vehicle>
    <vehicle id="res_ped193" depart="1737.00" departLane="best">
        <route edges="E14 E16.294 E5 E2 E22 E22.488"/>
    </vehicle>
    <vehicle id="res_ped194" depart="1746.00" departLane="best" departSpeed="max">
        <route edges="E9 E0"/>
    </vehicle>
    <vehicle id="res_ped196" depart="1764.00" departLane="best" departSpeed="max">
        <route edges="E18 E18.410 E15 E25.506"/>
    </vehicle>
    <vehicle id="res_ped199" depart="1791.00" departLane="best">
        <route edges="E22 E18.410 E0 E4 E17 E23.356"/>
    </vehicle>
    <vehicle id="res_ped202" depart="1818.00" departLane="best" departSpeed="max">
        <route edges="E23 E23.356 E22 E18.410 E15"/>
    </vehicle>
    <vehicle id="res_ped203" depart="1827.00" departLane="best" departSpeed="max">
        <route edges="E12 E25"/>
    </vehicle>
    <vehicle id="res_ped204" depart="1836.00" departLane="best">
        <route edges="E22 E18.410 E0 E2"/>
    </vehicle>
    <vehicle id="res_ped205" depart="1845.00" departLane="best" departSpeed="max">
        <route edges="E23 E23.356 E22 E30.558"/>
    </vehicle>
    <vehicle id="res_ped206" depart="1854.00" departLane="best">
        <route edges="E22 E18.410 E0 E6 E14 E16.294"/>
    </vehicle>
    <vehicle id="res_ped207" depart="1863.00" departLane="best">
        <route edges="E18.410 E0"/>
    </vehicle>
    <vehicle id="res_ped208" depart="1872.00" departLane="best" departSpeed="max">
        <route edges="E16 E24.357"/>
    </vehicle>
    <vehicle id="res_ped209" depart="1881.00" departLane="best" departSpeed="max">
        <route edges="E23 E27.479 E10"/>
    </vehicle>
    <vehicle id="res_ped211" depart="1899.00" departLane="best">
        <route edges="E15 E26.415 E7 E4"/>
    </vehicle>
    <vehicle id="res_ped212" depart="1908.00" departLane="best" departSpeed="max">
        <route edges="E21 E3 E6 E14 E16.294"/>
    </vehicle>
    <vehicle id="res_ped213" depart="1917.00" departLane="best">
        <route edges="E22 E18.410 E0"/>
    </vehicle>
    <vehicle id="res_ped214" depart="1926.00" departLane="best" departSpeed="max">
        <route edges="E23 E23.356 E22 E30.558"/>
    </vehicle>
    <vehicle id="res_ped216" depart="1944.00" departLane="best">
        <route edges="E15 E26.415 E7"/>
    </vehicle>
    <vehicle id="res_ped217" depart="1953.00" departLane="best" departSpeed="max">
        <route edges="E21 E3 E1"/>
    </vehicle>
    <vehicle id="res_ped218" depart="1962.00" departLane="best">
        <route edges="E17 E32.461"/>
    </vehicle>
    <vehicle id="res_ped220" depart="1980.00" departLane="best">
        <route edges="E22 E18.410 E8"/>
    </vehicle>
    <vehicle id="res_ped221" depart="1989.00" departLane="best" departSpeed="max">
        <route edges="E21 E3 E4"/>
    </vehicle>
    <vehicle id="res_ped223" depart="2007.00" departLane="best">
        <route edges="E22 E18.410 E0 E6 E25"/>
    </vehicle>
    <vehicle id="res_ped224" depart="2016.00" departLane="best" departSpeed="max">
        <route edges="E23 E23.356 E22 E18.410 E15 E25.506"/>
    </vehicle>
    <vehicle id="res_ped227" depart="2043.00" departLane="best" departSpeed="max">
        <route edges="E16 E24.357"/>
    </vehicle>
    <vehicle id="res_ped228" depart="2052.00" departLane="best" departSpeed="max">
        <route edges="E23 E27.479 E5 E6 E25"/>
    </vehicle>
    <vehicle id="res_ped229" depart="2061.00" departLane="best">
        <route edges="E22 E18.410 E0 E4 E17"/>
    </vehicle>
    <vehicle id="res_ped230" depart="2070.00" departLane="best" departSpeed="max">
        <route edges="E12 E7 E4 E17 E17.564"/>
    </vehicle>
    <vehicle id="res_ped231" depart="2079.00" departLane="best">
        <route edges="E17 E23.356 E22 E18.410"/>
    </vehicle>
    <vehicle id="res_ped232" depart="2088.00" departLane="best" departSpeed="max">
        <route edges="E21 E3 E6 E14"/>
    </vehicle>
    <vehicle id="res_ped233" depart="2097.00" departLane="best" departSpeed="max">
        <route edges="E16 E24.357 E25 E29.307"/>
    </vehicle>
    <vehicle id="res_ped234" depart="2106.00" departLane="best">
        <route edges="E22 E18.410 E0 E4 E10"/>
    </vehicle>
    <vehicle id="res_ped238" depart="2142.00" departLane="best" departSpeed="max">
        <route edges="E21 E3"/>
    </vehicle>
    <vehicle id="res_ped239" depart="2151.00" departLane="best" departSpeed="max">
        <route edges="E23 E23.356 E22 E30.558"/>
    </vehicle>
    <vehicle id="res_ped242" depart="2178.00" departLane="best" departSpeed="max">
        <route edges="E23 E27.479 E28 E24.357 E7"/>
    </vehicle>
    <vehicle id="res_ped244" depart="2196.00" departLane="best" departSpeed="max">
        <route edges="E21 E32 E27.479"/>
    </vehicle>
    <vehicle id="res_ped245" depart="2205.00" departLane="best" departSpeed="max">
        <route edges="E16 E24.357 E25 E15.463"/>
    </vehicle>
    <vehicle id="res_ped247" depart="2223.00" departLane="best" departSpeed="max">
        <route edges="E18 E31.622 E3 E6 E25 E29.307"/>
    </vehicle>
    <vehicle id="res_ped250" depart="2250.00" departLane="best">
        <route edges="E22 E18.410 E0"/>
    </vehicle>
    <vehicle id="res_ped253" depart="2277.00" departLane="best">
        <route edges="E14 E16.294 E17 E23.356"/>
    </vehicle>
    <vehicle id="res_ped254" depart="2286.00" departLane="best" departSpeed="max">
        <route edges="E11 E5 E2 E20"/>
    </vehicle>
    <vehicle id="res_ped255" depart="2295.00" departLane="best">
        <route edges="E15 E26.415 E7 E2 E22 E18.410"/>
    </vehicle>
    <vehicle id="res_ped256" depart="2304.00" departLane="best" departSpeed="max">
        <route edges="E23 E23.356 E20"/>
    </vehicle>
    <vehicle id="res_ped257" depart="2313.00" departLane="best" departSpeed="max">
        <route edges="E23 E27.479"/>
    </vehicle>
    <vehicle id="res_ped258" depart="2322.00" departLane="best">
        <route edges="E4 E10"/>
    </vehicle>
    <vehicle id="res_ped260" depart="2340.00" departLane="best" departSpeed="max">
        <route edges="E9 E0 E2"/>
    </vehicle>
    <vehicle id="res_ped261" depart="2349.00" departLane="best">
        <route edges="E22 E18.410 E15 E26.415 E7 E1 E30 E31.622"/>
    </vehicle>
    <vehicle id="res_ped262" depart="2358.00" departLane="best">
        <route edges="E22 E30.558"/>
    </vehicle>
    <vehicle id="res_ped263" depart="2367.00" departLane="best" departSpeed="max">
        <route edges="E9 E15 E15.463"/>
    </vehicle>
    <vehicle id="res_ped265" depart="2385.00" departLane="best">
        <route edges="E6 E25 E29.307"/>
    </vehicle>
    <vehicle id="res_ped266" depart="2394.00" departLane="best" departSpeed="max">
        <route edges="E21 E22 E18.410 E15 E15.463"/>
    </vehicle>
    <vehicle id="res_ped267" depart="2403.00" departLane="best">
        <route edges="E22 E30.558"/>
    </vehicle>
    <vehicle id="res_ped268" depart="2412.00" departLane="best">
        <route edges="E15 E26.415 E7 E2 E32 E27.479"/>
    </vehicle>
    <vehicle id="res_ped269" depart="2421.00" departLane="best" departSpeed="max">
        <route edges="E23 E27.479 E5 E6 E14"/>
    </vehicle>
    <vehicle id="res_ped270" depart="2430.00" departLane="best" departSpeed="max">
        <route edges="E23 E27.479 E28 E24.357 E7"/>
    </vehicle>
    <vehicle id="res_ped272" depart="2448.00" departLane="best" departSpeed="max">
        <route edges="E18 E31.622 E3 E6 E25 E29.307"/>
    </vehicle>
    <vehicle id="res_ped273" depart="2457.00" departLane="best" departSpeed="max">
        <route edges="E9 E0 E2 E22"/>
    </vehicle>
    <vehicle id="res_ped274" depart="2466.00" departLane="best">
        <route edges="E22 E18.410 E0 E4 E10"/>
    </vehicle>
    <vehicle id="res_ped275" depart="2475.00" departLane="best">
        <route edges="E22 E18.410 E0 E4 E28"/>
    </vehicle>
    <vehicle id="res_ped277" depart="2493.00" departLane="best" departSpeed="max">
        <route edges="E23 E27.479"/>
    </vehicle>
    <vehicle id="res_ped279" depart="2511.00" departLane="best" departSpeed="max">
        <route edges="E23 E27.479 E5 E2"/>
    </vehicle>
    <vehicle id="res_ped280" depart="2520.00" departLane="best">
        <route edges="E20"/>
    </vehicle>
    <vehicle id="res_ped281" depart="2529.00" departLane="best" departSpeed="max">
        <route edges="E21 E32"/>
    </vehicle>
    <vehicle id="res_ped282" depart="2538.00" departLane="best" departSpeed="max">
        <route edges="E23 E27.479"/>
    </vehicle>
    <vehicle id="res_ped284" depart="2556.00" departLane="best">
        <route edges="E2 E32"/>
    </vehicle>
    <vehicle id="res_ped285" depart="2565.00" departLane="best">
        <route edges="E22 E22.488"/>
    </vehicle>
    <vehicle id="res_ped286" depart="2574.00" departLane="best">
        <route edges="E22 E18.410 E15 E26.415 E7"/>
    </vehicle>
    <vehicle id="res_ped287" depart="2583.00" departLane="best">
        <route edges="E17 E23.356"/>
    </vehicle>
    <vehicle id="res_ped288" depart="2592.00" departLane="best" departSpeed="max">
        <route edges="E21 E3 E4 E28 E24.357"/>
    </vehicle>
    <vehicle id="res_ped290" depart="2610.00" departLane="best">
        <route edges="E17 E32.461"/>
    </vehicle>
    <vehicle id="res_ped291" depart="2619.00" departLane="best" departSpeed="max">
        <route edges="E23 E27.479 E5 E6 E13"/>
    </vehicle>