<routes>

<!-- generated on 2025-08-07 09:23:46.913938 by randomTrips.py v1_23_1+0000-676720d13f6
<configuration>
    <net-file value="osm.net.xml.gz"/>
    <weights-prefix value="random_edge_priority_interval_0"/>
    <output-trip-file value="osm.res_motorcycle.interval_0.trips.xml"/>
    <route-file value="osm.res_motorcycle.interval_0.rou.xml"/>
    <prefix value="res_motorcycle_int0"/>
    <trip-attributes value="departLane=&quot;best&quot;"/>
    <fringe-start-attributes value="departSpeed=&quot;max&quot;"/>
    <vehicle-class value="motorcycle"/>
    <vclass value="motorcycle"/>
    <remove-loops value="True"/>
    <validate value="True"/>
    <end value="1800.0"/>
    <insertion-rate value="1750.0"/>
</configuration>
-->

<!-- generated on 2025-08-07 09:23:46 by Eclipse SUMO duarouter Version 1.23.1
<duarouterConfiguration xmlns:xsi="http://www.w3.org/2001/XMLSchema-instance" xsi:noNamespaceSchemaLocation="http://sumo.dlr.de/xsd/duarouterConfiguration.xsd">

    <input>
        <net-file value="osm.net.xml.gz"/>
        <route-files value="osm.res_motorcycle.interval_0.trips.xml"/>
    </input>

    <output>
        <output-file value="osm.res_motorcycle.interval_0.trips.xml.tmp"/>
        <alternatives-output value="NUL"/>
        <write-trips value="true"/>
    </output>

    <processing>
        <remove-loops value="true"/>
    </processing>

    <time>
        <begin value="0.0"/>
        <end value="1800.0"/>
    </time>

    <report>
        <no-warnings value="true"/>
        <ignore-errors value="true"/>
        <no-step-log value="true"/>
    </report>

</duarouterConfiguration>
-->

    <vType id="res_motorcycle_int0_motorcycle" vClass="motorcycle"/>
    <trip id="res_motorcycle_int00" type="res_motorcycle_int0_motorcycle" depart="0.00" departLane="best" departSpeed="max" from="E22" to="E18.410"/>
    <trip id="res_motorcycle_int01" type="res_motorcycle_int0_motorcycle" depart="2.06" departLane="best" departSpeed="max" from="E22" to="E18.410"/>
    <trip id="res_motorcycle_int02" type="res_motorcycle_int0_motorcycle" depart="4.11" departLane="best" departSpeed="max" from="E22" to="E30.558"/>
    <trip id="res_motorcycle_int03" type="res_motorcycle_int0_motorcycle" depart="6.17" departLane="best" departSpeed="max" from="E22" to="E18.410"/>
    <trip id="res_motorcycle_int04" type="res_motorcycle_int0_motorcycle" depart="8.23" departLane="best" departSpeed="max" from="E22" to="E18.410"/>
    <trip id="res_motorcycle_int05" type="res_motorcycle_int0_motorcycle" depart="10.29" departLane="best" departSpeed="max" from="E22" to="E30.558"/>
    <trip id="res_motorcycle_int06" type="res_motorcycle_int0_motorcycle" depart="12.34" departLane="best" departSpeed="max" from="E22" to="E18.410"/>
    <trip id="res_motorcycle_int07" type="res_motorcycle_int0_motorcycle" depart="14.40" departLane="best" departSpeed="max" from="E22" to="E30.558"/>
    <trip id="res_motorcycle_int08" type="res_motorcycle_int0_motorcycle" depart="16.46" departLane="best" departSpeed="max" from="E22" to="E30.558"/>
    <trip id="res_motorcycle_int09" type="res_motorcycle_int0_motorcycle" depart="18.51" departLane="best" departSpeed="max" from="E22" to="E18.410"/>
    <trip id="res_motorcycle_int010" type="res_motorcycle_int0_motorcycle" depart="20.57" departLane="best" departSpeed="max" from="E22" to="E30.558"/>
    <trip id="res_motorcycle_int011" type="res_motorcycle_int0_motorcycle" depart="22.63" departLane="best" departSpeed="max" from="E22" to="E18.410"/>
    <trip id="res_motorcycle_int012" type="res_motorcycle_int0_motorcycle" depart="24.69" departLane="best" departSpeed="max" from="E22" to="E22.488"/>
    <trip id="res_motorcycle_int013" type="res_motorcycle_int0_motorcycle" depart="26.74" departLane="best" departSpeed="max" from="E22" to="E18.410"/>
    <trip id="res_motorcycle_int014" type="res_motorcycle_int0_motorcycle" depart="28.80" departLane="best" departSpeed="max" from="E22" to="E30.558"/>
    <trip id="res_motorcycle_int015" type="res_motorcycle_int0_motorcycle" depart="30.86" departLane="best" departSpeed="max" from="E22" to="E30.558"/>
    <trip id="res_motorcycle_int017" type="res_motorcycle_int0_motorcycle" depart="34.97" departLane="best" departSpeed="max" from="E22" to="E30.558"/>
    <trip id="res_motorcycle_int018" type="res_motorcycle_int0_motorcycle" depart="37.03" departLane="best" departSpeed="max" from="E22" to="E30.558"/>
    <trip id="res_motorcycle_int019" type="res_motorcycle_int0_motorcycle" depart="39.09" departLane="best" departSpeed="max" from="E22" to="E30.558"/>
    <trip id="res_motorcycle_int020" type="res_motorcycle_int0_motorcycle" depart="41.14" departLane="best" departSpeed="max" from="E22" to="E18.410"/>
    <trip id="res_motorcycle_int021" type="res_motorcycle_int0_motorcycle" depart="43.20" departLane="best" departSpeed="max" from="E22" to="E22.488"/>
    <trip id="res_motorcycle_int022" type="res_motorcycle_int0_motorcycle" depart="45.26" departLane="best" departSpeed="max" from="E22" to="E18.410"/>
    <trip id="res_motorcycle_int023" type="res_motorcycle_int0_motorcycle" depart="47.31" departLane="best" departSpeed="max" from="E22" to="E22.488"/>
    <trip id="res_motorcycle_int024" type="res_motorcycle_int0_motorcycle" depart="49.37" departLane="best" departSpeed="max" from="E22" to="E22.488"/>
    <trip id="res_motorcycle_int025" type="res_motorcycle_int0_motorcycle" depart="51.43" departLane="best" departSpeed="max" from="E22" to="E18.410"/>
    <trip id="res_motorcycle_int027" type="res_motorcycle_int0_motorcycle" depart="55.54" departLane="best" departSpeed="max" from="E22" to="E30.558"/>
    <trip id="res_motorcycle_int028" type="res_motorcycle_int0_motorcycle" depart="57.60" departLane="best" departSpeed="max" from="E22" to="E30.558"/>
    <trip id="res_motorcycle_int029" type="res_motorcycle_int0_motorcycle" depart="59.66" departLane="best" departSpeed="max" from="E22" to="E22.488"/>
    <trip id="res_motorcycle_int030" type="res_motorcycle_int0_motorcycle" depart="61.71" departLane="best" departSpeed="max" from="E22" to="E30.558"/>
    <trip id="res_motorcycle_int031" type="res_motorcycle_int0_motorcycle" depart="63.77" departLane="best" departSpeed="max" from="E22" to="E30.558"/>
    <trip id="res_motorcycle_int033" type="res_motorcycle_int0_motorcycle" depart="67.89" departLane="best" departSpeed="max" from="E22" to="E18.410"/>
    <trip id="res_motorcycle_int034" type="res_motorcycle_int0_motorcycle" depart="69.94" departLane="best" departSpeed="max" from="E22" to="E22.488"/>
    <trip id="res_motorcycle_int036" type="res_motorcycle_int0_motorcycle" depart="74.06" departLane="best" departSpeed="max" from="E22" to="E22.488"/>
    <trip id="res_motorcycle_int037" type="res_motorcycle_int0_motorcycle" depart="76.11" departLane="best" departSpeed="max" from="E22" to="E22.488"/>
    <trip id="res_motorcycle_int038" type="res_motorcycle_int0_motorcycle" depart="78.17" departLane="best" departSpeed="max" from="E22" to="E22.488"/>
    <trip id="res_motorcycle_int039" type="res_motorcycle_int0_motorcycle" depart="80.23" departLane="best" departSpeed="max" from="E22" to="E18.410"/>
    <trip id="res_motorcycle_int040" type="res_motorcycle_int0_motorcycle" depart="82.29" departLane="best" departSpeed="max" from="E22" to="E22.488"/>
    <trip id="res_motorcycle_int042" type="res_motorcycle_int0_motorcycle" depart="86.40" departLane="best" departSpeed="max" from="E22" to="E18.410"/>
    <trip id="res_motorcycle_int043" type="res_motorcycle_int0_motorcycle" depart="88.46" departLane="best" departSpeed="max" from="E22" to="E30.558"/>
    <trip id="res_motorcycle_int044" type="res_motorcycle_int0_motorcycle" depart="90.51" departLane="best" departSpeed="max" from="E22" to="E18.410"/>
    <trip id="res_motorcycle_int045" type="res_motorcycle_int0_motorcycle" depart="92.57" departLane="best" departSpeed="max" from="E22" to="E30.558"/>
    <trip id="res_motorcycle_int046" type="res_motorcycle_int0_motorcycle" depart="94.63" departLane="best" departSpeed="max" from="E22" to="E22.488"/>
    <trip id="res_motorcycle_int047" type="res_motorcycle_int0_motorcycle" depart="96.69" departLane="best" departSpeed="max" from="E22" to="E22.488"/>
    <trip id="res_motorcycle_int048" type="res_motorcycle_int0_motorcycle" depart="98.74" departLane="best" departSpeed="max" from="E22" to="E30.558"/>
    <trip id="res_motorcycle_int050" type="res_motorcycle_int0_motorcycle" depart="102.86" departLane="best" departSpeed="max" from="E22" to="E30.558"/>
    <trip id="res_motorcycle_int051" type="res_motorcycle_int0_motorcycle" depart="104.91" departLane="best" departSpeed="max" from="E22" to="E30.558"/>
    <trip id="res_motorcycle_int052" type="res_motorcycle_int0_motorcycle" depart="106.97" departLane="best" departSpeed="max" from="E22" to="E30.558"/>
    <trip id="res_motorcycle_int053" type="res_motorcycle_int0_motorcycle" depart="109.03" departLane="best" departSpeed="max" from="E22" to="E22.488"/>
    <trip id="res_motorcycle_int055" type="res_motorcycle_int0_motorcycle" depart="113.14" departLane="best" departSpeed="max" from="E22" to="E22.488"/>
    <trip id="res_motorcycle_int056" type="res_motorcycle_int0_motorcycle" depart="115.20" departLane="best" departSpeed="max" from="E22" to="E18.410"/>
    <trip id="res_motorcycle_int058" type="res_motorcycle_int0_motorcycle" depart="119.31" departLane="best" departSpeed="max" from="E22" to="E30.558"/>
    <trip id="res_motorcycle_int059" type="res_motorcycle_int0_motorcycle" depart="121.37" departLane="best" departSpeed="max" from="E22" to="E18.410"/>
    <trip id="res_motorcycle_int060" type="res_motorcycle_int0_motorcycle" depart="123.43" departLane="best" departSpeed="max" from="E22" to="E30.558"/>
    <trip id="res_motorcycle_int061" type="res_motorcycle_int0_motorcycle" depart="125.49" departLane="best" departSpeed="max" from="E22" to="E30.558"/>
    <trip id="res_motorcycle_int062" type="res_motorcycle_int0_motorcycle" depart="127.54" departLane="best" departSpeed="max" from="E22" to="E22.488"/>
    <trip id="res_motorcycle_int065" type="res_motorcycle_int0_motorcycle" depart="133.71" departLane="best" departSpeed="max" from="E22" to="E18.410"/>
    <trip id="res_motorcycle_int067" type="res_motorcycle_int0_motorcycle" depart="137.83" departLane="best" departSpeed="max" from="E22" to="E22.488"/>
    <trip id="res_motorcycle_int069" type="res_motorcycle_int0_motorcycle" depart="141.94" departLane="best" departSpeed="max" from="E22" to="E18.410"/>
    <trip id="res_motorcycle_int070" type="res_motorcycle_int0_motorcycle" depart="144.00" departLane="best" departSpeed="max" from="E22" to="E30.558"/>
    <trip id="res_motorcycle_int072" type="res_motorcycle_int0_motorcycle" depart="148.11" departLane="best" departSpeed="max" from="E22" to="E18.410"/>
    <trip id="res_motorcycle_int073" type="res_motorcycle_int0_motorcycle" depart="150.17" departLane="best" departSpeed="max" from="E22" to="E30.558"/>
    <trip id="res_motorcycle_int074" type="res_motorcycle_int0_motorcycle" depart="152.23" departLane="best" departSpeed="max" from="E22" to="E22.488"/>
    <trip id="res_motorcycle_int075" type="res_motorcycle_int0_motorcycle" depart="154.29" departLane="best" departSpeed="max" from="E22" to="E30.558"/>
    <trip id="res_motorcycle_int076" type="res_motorcycle_int0_motorcycle" depart="156.34" departLane="best" departSpeed="max" from="E22" to="E30.558"/>
    <trip id="res_motorcycle_int077" type="res_motorcycle_int0_motorcycle" depart="158.40" departLane="best" departSpeed="max" from="E22" to="E18.410"/>
    <trip id="res_motorcycle_int078" type="res_motorcycle_int0_motorcycle" depart="160.46" departLane="best" departSpeed="max" from="E22" to="E30.558"/>
    <trip id="res_motorcycle_int079" type="res_motorcycle_int0_motorcycle" depart="162.51" departLane="best" departSpeed="max" from="E22" to="E18.410"/>
    <trip id="res_motorcycle_int080" type="res_motorcycle_int0_motorcycle" depart="164.57" departLane="best" departSpeed="max" from="E22" to="E30.558"/>
    <trip id="res_motorcycle_int082" type="res_motorcycle_int0_motorcycle" depart="168.69" departLane="best" departSpeed="max" from="E22" to="E18.410"/>
    <trip id="res_motorcycle_int083" type="res_motorcycle_int0_motorcycle" depart="170.74" departLane="best" departSpeed="max" from="E22" to="E30.558"/>
    <trip id="res_motorcycle_int084" type="res_motorcycle_int0_motorcycle" depart="172.80" departLane="best" departSpeed="max" from="E22" to="E18.410"/>
    <trip id="res_motorcycle_int085" type="res_motorcycle_int0_motorcycle" depart="174.86" departLane="best" departSpeed="max" from="E22" to="E30.558"/>
    <trip id="res_motorcycle_int087" type="res_motorcycle_int0_motorcycle" depart="178.97" departLane="best" departSpeed="max" from="E22" to="E18.410"/>
    <trip id="res_motorcycle_int088" type="res_motorcycle_int0_motorcycle" depart="181.03" departLane="best" departSpeed="max" from="E22" to="E22.488"/>
    <trip id="res_motorcycle_int089" type="res_motorcycle_int0_motorcycle" depart="183.09" departLane="best" departSpeed="max" from="E22" to="E22.488"/>
    <trip id="res_motorcycle_int090" type="res_motorcycle_int0_motorcycle" depart="185.14" departLane="best" departSpeed="max" from="E22" to="E30.558"/>
    <trip id="res_motorcycle_int091" type="res_motorcycle_int0_motorcycle" depart="187.20" departLane="best" departSpeed="max" from="E22" to="E18.410"/>
    <trip id="res_motorcycle_int092" type="res_motorcycle_int0_motorcycle" depart="189.26" departLane="best" departSpeed="max" from="E22" to="E22.488"/>
    <trip id="res_motorcycle_int093" type="res_motorcycle_int0_motorcycle" depart="191.31" departLane="best" departSpeed="max" from="E22" to="E18.410"/>
    <trip id="res_motorcycle_int094" type="res_motorcycle_int0_motorcycle" depart="193.37" departLane="best" departSpeed="max" from="E22" to="E22.488"/>
    <trip id="res_motorcycle_int095" type="res_motorcycle_int0_motorcycle" depart="195.43" departLane="best" departSpeed="max" from="E22" to="E22.488"/>
    <trip id="res_motorcycle_int098" type="res_motorcycle_int0_motorcycle" depart="201.60" departLane="best" departSpeed="max" from="E22" to="E18.410"/>
    <trip id="res_motorcycle_int0101" type="res_motorcycle_int0_motorcycle" depart="207.77" departLane="best" departSpeed="max" from="E22" to="E18.410"/>
    <trip id="res_motorcycle_int0102" type="res_motorcycle_int0_motorcycle" depart="209.83" departLane="best" departSpeed="max" from="E22" to="E18.410"/>
    <trip id="res_motorcycle_int0103" type="res_motorcycle_int0_motorcycle" depart="211.89" departLane="best" departSpeed="max" from="E22" to="E18.410"/>
    <trip id="res_motorcycle_int0106" type="res_motorcycle_int0_motorcycle" depart="218.06" departLane="best" departSpeed="max" from="E22" to="E22.488"/>
    <trip id="res_motorcycle_int0108" type="res_motorcycle_int0_motorcycle" depart="222.17" departLane="best" departSpeed="max" from="E22" to="E30.558"/>
    <trip id="res_motorcycle_int0109" type="res_motorcycle_int0_motorcycle" depart="224.23" departLane="best" departSpeed="max" from="E22" to="E22.488"/>
    <trip id="res_motorcycle_int0110" type="res_motorcycle_int0_motorcycle" depart="226.29" departLane="best" departSpeed="max" from="E22" to="E30.558"/>
    <trip id="res_motorcycle_int0111" type="res_motorcycle_int0_motorcycle" depart="228.34" departLane="best" departSpeed="max" from="E22" to="E30.558"/>
    <trip id="res_motorcycle_int0112" type="res_motorcycle_int0_motorcycle" depart="230.40" departLane="best" departSpeed="max" from="E22" to="E30.558"/>
    <trip id="res_motorcycle_int0115" type="res_motorcycle_int0_motorcycle" depart="236.57" departLane="best" departSpeed="max" from="E22" to="E18.410"/>
    <trip id="res_motorcycle_int0116" type="res_motorcycle_int0_motorcycle" depart="238.63" departLane="best" departSpeed="max" from="E22" to="E30.558"/>
    <trip id="res_motorcycle_int0117" type="res_motorcycle_int0_motorcycle" depart="240.69" departLane="best" departSpeed="max" from="E22" to="E18.410"/>
    <trip id="res_motorcycle_int0118" type="res_motorcycle_int0_motorcycle" depart="242.74" departLane="best" departSpeed="max" from="E22" to="E18.410"/>
    <trip id="res_motorcycle_int0119" type="res_motorcycle_int0_motorcycle" depart="244.80" departLane="best" departSpeed="max" from="E22" to="E30.558"/>
    <trip id="res_motorcycle_int0120" type="res_motorcycle_int0_motorcycle" depart="246.86" departLane="best" departSpeed="max" from="E22" to="E30.558"/>
    <trip id="res_motorcycle_int0122" type="res_motorcycle_int0_motorcycle" depart="250.97" departLane="best" departSpeed="max" from="E22" to="E30.558"/>
    <trip id="res_motorcycle_int0123" type="res_motorcycle_int0_motorcycle" depart="253.03" departLane="best" departSpeed="max" from="E22" to="E22.488"/>
    <trip id="res_motorcycle_int0124" type="res_motorcycle_int0_motorcycle" depart="255.09" departLane="best" departSpeed="max" from="E22" to="E22.488"/>
    <trip id="res_motorcycle_int0126" type="res_motorcycle_int0_motorcycle" depart="259.20" departLane="best" departSpeed="max" from="E22" to="E22.488"/>
    <trip id="res_motorcycle_int0128" type="res_motorcycle_int0_motorcycle" depart="263.31" departLane="best" departSpeed="max" from="E22" to="E18.410"/>
    <trip id="res_motorcycle_int0131" type="res_motorcycle_int0_motorcycle" depart="269.49" departLane="best" departSpeed="max" from="E22" to="E18.410"/>
    <trip id="res_motorcycle_int0132" type="res_motorcycle_int0_motorcycle" depart="271.54" departLane="best" departSpeed="max" from="E22" to="E30.558"/>
    <trip id="res_motorcycle_int0134" type="res_motorcycle_int0_motorcycle" depart="275.66" departLane="best" departSpeed="max" from="E22" to="E18.410"/>
    <trip id="res_motorcycle_int0135" type="res_motorcycle_int0_motorcycle" depart="277.71" departLane="best" departSpeed="max" from="E22" to="E22.488"/>
    <trip id="res_motorcycle_int0137" type="res_motorcycle_int0_motorcycle" depart="281.83" departLane="best" departSpeed="max" from="E22" to="E18.410"/>
    <trip id="res_motorcycle_int0138" type="res_motorcycle_int0_motorcycle" depart="283.89" departLane="best" departSpeed="max" from="E22" to="E30.558"/>
    <trip id="res_motorcycle_int0139" type="res_motorcycle_int0_motorcycle" depart="285.94" departLane="best" departSpeed="max" from="E22" to="E30.558"/>
    <trip id="res_motorcycle_int0140" type="res_motorcycle_int0_motorcycle" depart="288.00" departLane="best" departSpeed="max" from="E22" to="E18.410"/>
    <trip id="res_motorcycle_int0141" type="res_motorcycle_int0_motorcycle" depart="290.06" departLane="best" departSpeed="max" from="E22" to="E22.488"/>
    <trip id="res_motorcycle_int0143" type="res_motorcycle_int0_motorcycle" depart="294.17" departLane="best" departSpeed="max" from="E22" to="E18.410"/>
    <trip id="res_motorcycle_int0144" type="res_motorcycle_int0_motorcycle" depart="296.23" departLane="best" departSpeed="max" from="E22" to="E22.488"/>
    <trip id="res_motorcycle_int0146" type="res_motorcycle_int0_motorcycle" depart="300.34" departLane="best" departSpeed="max" from="E22" to="E22.488"/>
    <trip id="res_motorcycle_int0147" type="res_motorcycle_int0_motorcycle" depart="302.40" departLane="best" departSpeed="max" from="E22" to="E30.558"/>
    <trip id="res_motorcycle_int0148" type="res_motorcycle_int0_motorcycle" depart="304.46" departLane="best" departSpeed="max" from="E22" to="E18.410"/>
    <trip id="res_motorcycle_int0150" type="res_motorcycle_int0_motorcycle" depart="308.57" departLane="best" departSpeed="max" from="E22" to="E30.558"/>
    <trip id="res_motorcycle_int0151" type="res_motorcycle_int0_motorcycle" depart="310.63" departLane="best" departSpeed="max" from="E22" to="E30.558"/>
    <trip id="res_motorcycle_int0152" type="res_motorcycle_int0_motorcycle" depart="312.69" departLane="best" departSpeed="max" from="E22" to="E18.410"/>
    <trip id="res_motorcycle_int0155" type="res_motorcycle_int0_motorcycle" depart="318.86" departLane="best" departSpeed="max" from="E22" to="E18.410"/>
    <trip id="res_motorcycle_int0156" type="res_motorcycle_int0_motorcycle" depart="320.91" departLane="best" departSpeed="max" from="E22" to="E18.410"/>
    <trip id="res_motorcycle_int0158" type="res_motorcycle_int0_motorcycle" depart="325.03" departLane="best" departSpeed="max" from="E22" to="E30.558"/>
    <trip id="res_motorcycle_int0162" type="res_motorcycle_int0_motorcycle" depart="333.26" departLane="best" departSpeed="max" from="E22" to="E30.558"/>
    <trip id="res_motorcycle_int0165" type="res_motorcycle_int0_motorcycle" depart="339.43" departLane="best" departSpeed="max" from="E22" to="E22.488"/>
    <trip id="res_motorcycle_int0166" type="res_motorcycle_int0_motorcycle" depart="341.49" departLane="best" departSpeed="max" from="E22" to="E18.410"/>
    <trip id="res_motorcycle_int0169" type="res_motorcycle_int0_motorcycle" depart="347.66" departLane="best" departSpeed="max" from="E22" to="E22.488"/>
    <trip id="res_motorcycle_int0170" type="res_motorcycle_int0_motorcycle" depart="349.71" departLane="best" departSpeed="max" from="E22" to="E18.410"/>
    <trip id="res_motorcycle_int0171" type="res_motorcycle_int0_motorcycle" depart="351.77" departLane="best" departSpeed="max" from="E22" to="E18.410"/>
    <trip id="res_motorcycle_int0173" type="res_motorcycle_int0_motorcycle" depart="355.89" departLane="best" departSpeed="max" from="E22" to="E22.488"/>
    <trip id="res_motorcycle_int0174" type="res_motorcycle_int0_motorcycle" depart="357.94" departLane="best" departSpeed="max" from="E22" to="E22.488"/>
    <trip id="res_motorcycle_int0175" type="res_motorcycle_int0_motorcycle" depart="360.00" departLane="best" departSpeed="max" from="E22" to="E30.558"/>
    <trip id="res_motorcycle_int0176" type="res_motorcycle_int0_motorcycle" depart="362.06" departLane="best" departSpeed="max" from="E22" to="E18.410"/>
    <trip id="res_motorcycle_int0177" type="res_motorcycle_int0_motorcycle" depart="364.11" departLane="best" departSpeed="max" from="E22" to="E18.410"/>
    <trip id="res_motorcycle_int0178" type="res_motorcycle_int0_motorcycle" depart="366.17" departLane="best" departSpeed="max" from="E22" to="E22.488"/>
    <trip id="res_motorcycle_int0179" type="res_motorcycle_int0_motorcycle" depart="368.23" departLane="best" departSpeed="max" from="E22" to="E22.488"/>
    <trip id="res_motorcycle_int0180" type="res_motorcycle_int0_motorcycle" depart="370.29" departLane="best" departSpeed="max" from="E22" to="E22.488"/>
    <trip id="res_motorcycle_int0181" type="res_motorcycle_int0_motorcycle" depart="372.34" departLane="best" departSpeed="max" from="E22" to="E30.558"/>
    <trip id="res_motorcycle_int0182" type="res_motorcycle_int0_motorcycle" depart="374.40" departLane="best" departSpeed="max" from="E22" to="E30.558"/>
    <trip id="res_motorcycle_int0183" type="res_motorcycle_int0_motorcycle" depart="376.46" departLane="best" departSpeed="max" from="E22" to="E30.558"/>
    <trip id="res_motorcycle_int0185" type="res_motorcycle_int0_motorcycle" depart="380.57" departLane="best" departSpeed="max" from="E22" to="E30.558"/>
    <trip id="res_motorcycle_int0186" type="res_motorcycle_int0_motorcycle" depart="382.63" departLane="best" departSpeed="max" from="E22" to="E30.558"/>
    <trip id="res_motorcycle_int0187" type="res_motorcycle_int0_motorcycle" depart="384.69" departLane="best" departSpeed="max" from="E22" to="E18.410"/>
    <trip id="res_motorcycle_int0188" type="res_motorcycle_int0_motorcycle" depart="386.74" departLane="best" departSpeed="max" from="E22" to="E22.488"/>
    <trip id="res_motorcycle_int0190" type="res_motorcycle_int0_motorcycle" depart="390.86" departLane="best" departSpeed="max" from="E22" to="E22.488"/>
    <trip id="res_motorcycle_int0191" type="res_motorcycle_int0_motorcycle" depart="392.91" departLane="best" departSpeed="max" from="E22" to="E22.488"/>
    <trip id="res_motorcycle_int0192" type="res_motorcycle_int0_motorcycle" depart="394.97" departLane="best" departSpeed="max" from="E22" to="E22.488"/>
    <trip id="res_motorcycle_int0193" type="res_motorcycle_int0_motorcycle" depart="397.03" departLane="best" departSpeed="max" from="E22" to="E22.488"/>
    <trip id="res_motorcycle_int0194" type="res_motorcycle_int0_motorcycle" depart="399.09" departLane="best" departSpeed="max" from="E22" to="E30.558"/>
    <trip id="res_motorcycle_int0195" type="res_motorcycle_int0_motorcycle" depart="401.14" departLane="best" departSpeed="max" from="E22" to="E30.558"/>
    <trip id="res_motorcycle_int0196" type="res_motorcycle_int0_motorcycle" depart="403.20" departLane="best" departSpeed="max" from="E22" to="E30.558"/>
    <trip id="res_motorcycle_int0197" type="res_motorcycle_int0_motorcycle" depart="405.26" departLane="best" departSpeed="max" from="E22" to="E22.488"/>
    <trip id="res_motorcycle_int0198" type="res_motorcycle_int0_motorcycle" depart="407.31" departLane="best" departSpeed="max" from="E22" to="E30.558"/>
    <trip id="res_motorcycle_int0199" type="res_motorcycle_int0_motorcycle" depart="409.37" departLane="best" departSpeed="max" from="E22" to="E22.488"/>
    <trip id="res_motorcycle_int0200" type="res_motorcycle_int0_motorcycle" depart="411.43" departLane="best" departSpeed="max" from="E22" to="E18.410"/>
    <trip id="res_motorcycle_int0202" type="res_motorcycle_int0_motorcycle" depart="415.54" departLane="best" departSpeed="max" from="E22" to="E18.410"/>
    <trip id="res_motorcycle_int0203" type="res_motorcycle_int0_motorcycle" depart="417.60" departLane="best" departSpeed="max" from="E22" to="E30.558"/>
    <trip id="res_motorcycle_int0204" type="res_motorcycle_int0_motorcycle" depart="419.66" departLane="best" departSpeed="max" from="E22" to="E22.488"/>
    <trip id="res_motorcycle_int0206" type="res_motorcycle_int0_motorcycle" depart="423.77" departLane="best" departSpeed="max" from="E22" to="E18.410"/>
    <trip id="res_motorcycle_int0207" type="res_motorcycle_int0_motorcycle" depart="425.83" departLane="best" departSpeed="max" from="E22" to="E18.410"/>
    <trip id="res_motorcycle_int0208" type="res_motorcycle_int0_motorcycle" depart="427.89" departLane="best" departSpeed="max" from="E22" to="E22.488"/>
    <trip id="res_motorcycle_int0209" type="res_motorcycle_int0_motorcycle" depart="429.94" departLane="best" departSpeed="max" from="E22" to="E18.410"/>
    <trip id="res_motorcycle_int0210" type="res_motorcycle_int0_motorcycle" depart="432.00" departLane="best" departSpeed="max" from="E22" to="E30.558"/>
    <trip id="res_motorcycle_int0211" type="res_motorcycle_int0_motorcycle" depart="434.06" departLane="best" departSpeed="max" from="E22" to="E30.558"/>
    <trip id="res_motorcycle_int0212" type="res_motorcycle_int0_motorcycle" depart="436.11" departLane="best" departSpeed="max" from="E22" to="E18.410"/>
    <trip id="res_motorcycle_int0213" type="res_motorcycle_int0_motorcycle" depart="438.17" departLane="best" departSpeed="max" from="E22" to="E18.410"/>
    <trip id="res_motorcycle_int0215" type="res_motorcycle_int0_motorcycle" depart="442.29" departLane="best" departSpeed="max" from="E22" to="E22.488"/>
    <trip id="res_motorcycle_int0217" type="res_motorcycle_int0_motorcycle" depart="446.40" departLane="best" departSpeed="max" from="E22" to="E18.410"/>
    <trip id="res_motorcycle_int0222" type="res_motorcycle_int0_motorcycle" depart="456.69" departLane="best" departSpeed="max" from="E22" to="E30.558"/>
    <trip id="res_motorcycle_int0223" type="res_motorcycle_int0_motorcycle" depart="458.74" departLane="best" departSpeed="max" from="E22" to="E30.558"/>
    <trip id="res_motorcycle_int0224" type="res_motorcycle_int0_motorcycle" depart="460.80" departLane="best" departSpeed="max" from="E22" to="E30.558"/>
    <trip id="res_motorcycle_int0225" type="res_motorcycle_int0_motorcycle" depart="462.86" departLane="best" departSpeed="max" from="E22" to="E30.558"/>
    <trip id="res_motorcycle_int0226" type="res_motorcycle_int0_motorcycle" depart="464.91" departLane="best" departSpeed="max" from="E22" to="E22.488"/>
    <trip id="res_motorcycle_int0227" type="res_motorcycle_int0_motorcycle" depart="466.97" departLane="best" departSpeed="max" from="E22" to="E30.558"/>
    <trip id="res_motorcycle_int0228" type="res_motorcycle_int0_motorcycle" depart="469.03" departLane="best" departSpeed="max" from="E22" to="E30.558"/>
    <trip id="res_motorcycle_int0229" type="res_motorcycle_int0_motorcycle" depart="471.09" departLane="best" departSpeed="max" from="E22" to="E22.488"/>
    <trip id="res_motorcycle_int0230" type="res_motorcycle_int0_motorcycle" depart="473.14" departLane="best" departSpeed="max" from="E22" to="E22.488"/>
    <trip id="res_motorcycle_int0231" type="res_motorcycle_int0_motorcycle" depart="475.20" departLane="best" departSpeed="max" from="E22" to="E22.488"/>
    <trip id="res_motorcycle_int0232" type="res_motorcycle_int0_motorcycle" depart="477.26" departLane="best" departSpeed="max" from="E22" to="E18.410"/>
    <trip id="res_motorcycle_int0233" type="res_motorcycle_int0_motorcycle" depart="479.31" departLane="best" departSpeed="max" from="E22" to="E30.558"/>
    <trip id="res_motorcycle_int0234" type="res_motorcycle_int0_motorcycle" depart="481.37" departLane="best" departSpeed="max" from="E22" to="E18.410"/>
    <trip id="res_motorcycle_int0235" type="res_motorcycle_int0_motorcycle" depart="483.43" departLane="best" departSpeed="max" from="E22" to="E30.558"/>
    <trip id="res_motorcycle_int0236" type="res_motorcycle_int0_motorcycle" depart="485.49" departLane="best" departSpeed="max" from="E22" to="E18.410"/>
    <trip id="res_motorcycle_int0238" type="res_motorcycle_int0_motorcycle" depart="489.60" departLane="best" departSpeed="max" from="E22" to="E30.558"/>
    <trip id="res_motorcycle_int0240" type="res_motorcycle_int0_motorcycle" depart="493.71" departLane="best" departSpeed="max" from="E22" to="E18.410"/>