<routes>

<!-- generated on 2025-08-07 09:23:53.271868 by randomTrips.py v1_23_1+0000-676720d13f6
<configuration>
    <net-file value="osm.net.xml.gz"/>
    <weights-prefix value="random_edge_priority_interval_0"/>
    <output-trip-file value="osm.res_veh.interval_0.trips.xml"/>
    <route-file value="osm.res_veh.interval_0.rou.xml"/>
    <prefix value="res_veh_int0"/>
    <trip-attributes value="departLane=&quot;best&quot;"/>
    <fringe-start-attributes value="departSpeed=&quot;max&quot;"/>
    <vehicle-class value="passenger"/>
    <remove-loops value="True"/>
    <validate value="True"/>
    <end value="1800.0"/>
    <insertion-rate value="5000.0"/>
</configuration>
-->

<!-- generated on 2025-08-07 09:23:52 by Eclipse SUMO duarouter Version 1.23.1
<duarouterConfiguration xmlns:xsi="http://www.w3.org/2001/XMLSchema-instance" xsi:noNamespaceSchemaLocation="http://sumo.dlr.de/xsd/duarouterConfiguration.xsd">

    <input>
        <net-file value="osm.net.xml.gz"/>
        <route-files value="osm.res_veh.interval_0.trips.xml"/>
    </input>

    <output>
        <output-file value="osm.res_veh.interval_0.trips.xml.tmp"/>
        <alternatives-output value="NUL"/>
        <write-trips value="true"/>
    </output>

    <processing>
        <remove-loops value="true"/>
    </processing>

    <time>
        <begin value="0.0"/>
        <end value="1800.0"/>
    </time>

    <report>
        <no-warnings value="true"/>
        <ignore-errors value="true"/>
        <no-step-log value="true"/>
    </report>

</duarouterConfiguration>
-->

    <vType id="res_veh_int0_passenger" vClass="passenger"/>
    <trip id="res_veh_int00" type="res_veh_int0_passenger" depart="0.00" departLane="best" departSpeed="max" from="E22" to="E18.410"/>
    <trip id="res_veh_int01" type="res_veh_int0_passenger" depart="0.72" departLane="best" departSpeed="max" from="E22" to="E18.410"/>
    <trip id="res_veh_int02" type="res_veh_int0_passenger" depart="1.44" departLane="best" departSpeed="max" from="E22" to="E30.558"/>
    <trip id="res_veh_int03" type="res_veh_int0_passenger" depart="2.16" departLane="best" departSpeed="max" from="E22" to="E18.410"/>
    <trip id="res_veh_int04" type="res_veh_int0_passenger" depart="2.88" departLane="best" departSpeed="max" from="E22" to="E18.410"/>
    <trip id="res_veh_int05" type="res_veh_int0_passenger" depart="3.60" departLane="best" departSpeed="max" from="E22" to="E30.558"/>
    <trip id="res_veh_int06" type="res_veh_int0_passenger" depart="4.32" departLane="best" departSpeed="max" from="E22" to="E18.410"/>
    <trip id="res_veh_int07" type="res_veh_int0_passenger" depart="5.04" departLane="best" departSpeed="max" from="E22" to="E30.558"/>
    <trip id="res_veh_int08" type="res_veh_int0_passenger" depart="5.76" departLane="best" departSpeed="max" from="E22" to="E30.558"/>
    <trip id="res_veh_int09" type="res_veh_int0_passenger" depart="6.48" departLane="best" departSpeed="max" from="E22" to="E18.410"/>
    <trip id="res_veh_int010" type="res_veh_int0_passenger" depart="7.20" departLane="best" departSpeed="max" from="E22" to="E30.558"/>
    <trip id="res_veh_int011" type="res_veh_int0_passenger" depart="7.92" departLane="best" departSpeed="max" from="E22" to="E18.410"/>
    <trip id="res_veh_int012" type="res_veh_int0_passenger" depart="8.64" departLane="best" departSpeed="max" from="E22" to="E22.488"/>
    <trip id="res_veh_int013" type="res_veh_int0_passenger" depart="9.36" departLane="best" departSpeed="max" from="E22" to="E18.410"/>
    <trip id="res_veh_int014" type="res_veh_int0_passenger" depart="10.08" departLane="best" departSpeed="max" from="E22" to="E30.558"/>
    <trip id="res_veh_int015" type="res_veh_int0_passenger" depart="10.80" departLane="best" departSpeed="max" from="E22" to="E30.558"/>
    <trip id="res_veh_int017" type="res_veh_int0_passenger" depart="12.24" departLane="best" departSpeed="max" from="E22" to="E30.558"/>
    <trip id="res_veh_int018" type="res_veh_int0_passenger" depart="12.96" departLane="best" departSpeed="max" from="E22" to="E30.558"/>
    <trip id="res_veh_int019" type="res_veh_int0_passenger" depart="13.68" departLane="best" departSpeed="max" from="E22" to="E30.558"/>
    <trip id="res_veh_int020" type="res_veh_int0_passenger" depart="14.40" departLane="best" departSpeed="max" from="E22" to="E18.410"/>
    <trip id="res_veh_int021" type="res_veh_int0_passenger" depart="15.12" departLane="best" departSpeed="max" from="E22" to="E22.488"/>
    <trip id="res_veh_int022" type="res_veh_int0_passenger" depart="15.84" departLane="best" departSpeed="max" from="E22" to="E18.410"/>
    <trip id="res_veh_int023" type="res_veh_int0_passenger" depart="16.56" departLane="best" departSpeed="max" from="E22" to="E22.488"/>
    <trip id="res_veh_int024" type="res_veh_int0_passenger" depart="17.28" departLane="best" departSpeed="max" from="E22" to="E22.488"/>
    <trip id="res_veh_int025" type="res_veh_int0_passenger" depart="18.00" departLane="best" departSpeed="max" from="E22" to="E18.410"/>
    <trip id="res_veh_int027" type="res_veh_int0_passenger" depart="19.44" departLane="best" departSpeed="max" from="E22" to="E30.558"/>
    <trip id="res_veh_int028" type="res_veh_int0_passenger" depart="20.16" departLane="best" departSpeed="max" from="E22" to="E30.558"/>
    <trip id="res_veh_int029" type="res_veh_int0_passenger" depart="20.88" departLane="best" departSpeed="max" from="E22" to="E22.488"/>
    <trip id="res_veh_int030" type="res_veh_int0_passenger" depart="21.60" departLane="best" departSpeed="max" from="E22" to="E30.558"/>
    <trip id="res_veh_int031" type="res_veh_int0_passenger" depart="22.32" departLane="best" departSpeed="max" from="E22" to="E30.558"/>
    <trip id="res_veh_int033" type="res_veh_int0_passenger" depart="23.76" departLane="best" departSpeed="max" from="E22" to="E18.410"/>
    <trip id="res_veh_int034" type="res_veh_int0_passenger" depart="24.48" departLane="best" departSpeed="max" from="E22" to="E22.488"/>
    <trip id="res_veh_int036" type="res_veh_int0_passenger" depart="25.92" departLane="best" departSpeed="max" from="E22" to="E22.488"/>
    <trip id="res_veh_int037" type="res_veh_int0_passenger" depart="26.64" departLane="best" departSpeed="max" from="E22" to="E22.488"/>
    <trip id="res_veh_int038" type="res_veh_int0_passenger" depart="27.36" departLane="best" departSpeed="max" from="E22" to="E22.488"/>
    <trip id="res_veh_int039" type="res_veh_int0_passenger" depart="28.08" departLane="best" departSpeed="max" from="E22" to="E18.410"/>
    <trip id="res_veh_int040" type="res_veh_int0_passenger" depart="28.80" departLane="best" departSpeed="max" from="E22" to="E22.488"/>
    <trip id="res_veh_int042" type="res_veh_int0_passenger" depart="30.24" departLane="best" departSpeed="max" from="E22" to="E18.410"/>
    <trip id="res_veh_int043" type="res_veh_int0_passenger" depart="30.96" departLane="best" departSpeed="max" from="E22" to="E30.558"/>
    <trip id="res_veh_int044" type="res_veh_int0_passenger" depart="31.68" departLane="best" departSpeed="max" from="E22" to="E18.410"/>
    <trip id="res_veh_int045" type="res_veh_int0_passenger" depart="32.40" departLane="best" departSpeed="max" from="E22" to="E30.558"/>
    <trip id="res_veh_int046" type="res_veh_int0_passenger" depart="33.12" departLane="best" departSpeed="max" from="E22" to="E22.488"/>
    <trip id="res_veh_int047" type="res_veh_int0_passenger" depart="33.84" departLane="best" departSpeed="max" from="E22" to="E22.488"/>
    <trip id="res_veh_int048" type="res_veh_int0_passenger" depart="34.56" departLane="best" departSpeed="max" from="E22" to="E30.558"/>
    <trip id="res_veh_int050" type="res_veh_int0_passenger" depart="36.00" departLane="best" departSpeed="max" from="E22" to="E30.558"/>
    <trip id="res_veh_int051" type="res_veh_int0_passenger" depart="36.72" departLane="best" departSpeed="max" from="E22" to="E30.558"/>
    <trip id="res_veh_int052" type="res_veh_int0_passenger" depart="37.44" departLane="best" departSpeed="max" from="E22" to="E30.558"/>
    <trip id="res_veh_int053" type="res_veh_int0_passenger" depart="38.16" departLane="best" departSpeed="max" from="E22" to="E22.488"/>
    <trip id="res_veh_int055" type="res_veh_int0_passenger" depart="39.60" departLane="best" departSpeed="max" from="E22" to="E22.488"/>
    <trip id="res_veh_int056" type="res_veh_int0_passenger" depart="40.32" departLane="best" departSpeed="max" from="E22" to="E18.410"/>
    <trip id="res_veh_int058" type="res_veh_int0_passenger" depart="41.76" departLane="best" departSpeed="max" from="E22" to="E30.558"/>
    <trip id="res_veh_int059" type="res_veh_int0_passenger" depart="42.48" departLane="best" departSpeed="max" from="E22" to="E18.410"/>
    <trip id="res_veh_int060" type="res_veh_int0_passenger" depart="43.20" departLane="best" departSpeed="max" from="E22" to="E30.558"/>
    <trip id="res_veh_int061" type="res_veh_int0_passenger" depart="43.92" departLane="best" departSpeed="max" from="E22" to="E30.558"/>
    <trip id="res_veh_int062" type="res_veh_int0_passenger" depart="44.64" departLane="best" departSpeed="max" from="E22" to="E22.488"/>
    <trip id="res_veh_int065" type="res_veh_int0_passenger" depart="46.80" departLane="best" departSpeed="max" from="E22" to="E18.410"/>
    <trip id="res_veh_int067" type="res_veh_int0_passenger" depart="48.24" departLane="best" departSpeed="max" from="E22" to="E22.488"/>
    <trip id="res_veh_int069" type="res_veh_int0_passenger" depart="49.68" departLane="best" departSpeed="max" from="E22" to="E18.410"/>
    <trip id="res_veh_int070" type="res_veh_int0_passenger" depart="50.40" departLane="best" departSpeed="max" from="E22" to="E30.558"/>
    <trip id="res_veh_int072" type="res_veh_int0_passenger" depart="51.84" departLane="best" departSpeed="max" from="E22" to="E18.410"/>
    <trip id="res_veh_int073" type="res_veh_int0_passenger" depart="52.56" departLane="best" departSpeed="max" from="E22" to="E30.558"/>
    <trip id="res_veh_int074" type="res_veh_int0_passenger" depart="53.28" departLane="best" departSpeed="max" from="E22" to="E22.488"/>
    <trip id="res_veh_int075" type="res_veh_int0_passenger" depart="54.00" departLane="best" departSpeed="max" from="E22" to="E30.558"/>
    <trip id="res_veh_int076" type="res_veh_int0_passenger" depart="54.72" departLane="best" departSpeed="max" from="E22" to="E30.558"/>
    <trip id="res_veh_int077" type="res_veh_int0_passenger" depart="55.44" departLane="best" departSpeed="max" from="E22" to="E18.410"/>
    <trip id="res_veh_int078" type="res_veh_int0_passenger" depart="56.16" departLane="best" departSpeed="max" from="E22" to="E30.558"/>
    <trip id="res_veh_int079" type="res_veh_int0_passenger" depart="56.88" departLane="best" departSpeed="max" from="E22" to="E18.410"/>
    <trip id="res_veh_int080" type="res_veh_int0_passenger" depart="57.60" departLane="best" departSpeed="max" from="E22" to="E30.558"/>
    <trip id="res_veh_int082" type="res_veh_int0_passenger" depart="59.04" departLane="best" departSpeed="max" from="E22" to="E18.410"/>
    <trip id="res_veh_int083" type="res_veh_int0_passenger" depart="59.76" departLane="best" departSpeed="max" from="E22" to="E30.558"/>
    <trip id="res_veh_int084" type="res_veh_int0_passenger" depart="60.48" departLane="best" departSpeed="max" from="E22" to="E18.410"/>
    <trip id="res_veh_int085" type="res_veh_int0_passenger" depart="61.20" departLane="best" departSpeed="max" from="E22" to="E30.558"/>
    <trip id="res_veh_int087" type="res_veh_int0_passenger" depart="62.64" departLane="best" departSpeed="max" from="E22" to="E18.410"/>
    <trip id="res_veh_int088" type="res_veh_int0_passenger" depart="63.36" departLane="best" departSpeed="max" from="E22" to="E22.488"/>
    <trip id="res_veh_int089" type="res_veh_int0_passenger" depart="64.08" departLane="best" departSpeed="max" from="E22" to="E22.488"/>
    <trip id="res_veh_int090" type="res_veh_int0_passenger" depart="64.80" departLane="best" departSpeed="max" from="E22" to="E30.558"/>
    <trip id="res_veh_int091" type="res_veh_int0_passenger" depart="65.52" departLane="best" departSpeed="max" from="E22" to="E18.410"/>
    <trip id="res_veh_int092" type="res_veh_int0_passenger" depart="66.24" departLane="best" departSpeed="max" from="E22" to="E22.488"/>
    <trip id="res_veh_int093" type="res_veh_int0_passenger" depart="66.96" departLane="best" departSpeed="max" from="E22" to="E18.410"/>
    <trip id="res_veh_int094" type="res_veh_int0_passenger" depart="67.68" departLane="best" departSpeed="max" from="E22" to="E22.488"/>
    <trip id="res_veh_int095" type="res_veh_int0_passenger" depart="68.40" departLane="best" departSpeed="max" from="E22" to="E22.488"/>
    <trip id="res_veh_int098" type="res_veh_int0_passenger" depart="70.56" departLane="best" departSpeed="max" from="E22" to="E18.410"/>
    <trip id="res_veh_int0101" type="res_veh_int0_passenger" depart="72.72" departLane="best" departSpeed="max" from="E22" to="E18.410"/>
    <trip id="res_veh_int0102" type="res_veh_int0_passenger" depart="73.44" departLane="best" departSpeed="max" from="E22" to="E18.410"/>
    <trip id="res_veh_int0103" type="res_veh_int0_passenger" depart="74.16" departLane="best" departSpeed="max" from="E22" to="E18.410"/>
    <trip id="res_veh_int0106" type="res_veh_int0_passenger" depart="76.32" departLane="best" departSpeed="max" from="E22" to="E22.488"/>
    <trip id="res_veh_int0108" type="res_veh_int0_passenger" depart="77.76" departLane="best" departSpeed="max" from="E22" to="E30.558"/>
    <trip id="res_veh_int0109" type="res_veh_int0_passenger" depart="78.48" departLane="best" departSpeed="max" from="E22" to="E22.488"/>
    <trip id="res_veh_int0110" type="res_veh_int0_passenger" depart="79.20" departLane="best" departSpeed="max" from="E22" to="E30.558"/>
    <trip id="res_veh_int0111" type="res_veh_int0_passenger" depart="79.92" departLane="best" departSpeed="max" from="E22" to="E30.558"/>
    <trip id="res_veh_int0112" type="res_veh_int0_passenger" depart="80.64" departLane="best" departSpeed="max" from="E22" to="E30.558"/>
    <trip id="res_veh_int0115" type="res_veh_int0_passenger" depart="82.80" departLane="best" departSpeed="max" from="E22" to="E18.410"/>
    <trip id="res_veh_int0116" type="res_veh_int0_passenger" depart="83.52" departLane="best" departSpeed="max" from="E22" to="E30.558"/>
    <trip id="res_veh_int0117" type="res_veh_int0_passenger" depart="84.24" departLane="best" departSpeed="max" from="E22" to="E18.410"/>
    <trip id="res_veh_int0118" type="res_veh_int0_passenger" depart="84.96" departLane="best" departSpeed="max" from="E22" to="E18.410"/>
    <trip id="res_veh_int0119" type="res_veh_int0_passenger" depart="85.68" departLane="best" departSpeed="max" from="E22" to="E30.558"/>
    <trip id="res_veh_int0120" type="res_veh_int0_passenger" depart="86.40" departLane="best" departSpeed="max" from="E22" to="E30.558"/>
    <trip id="res_veh_int0122" type="res_veh_int0_passenger" depart="87.84" departLane="best" departSpeed="max" from="E22" to="E30.558"/>
    <trip id="res_veh_int0123" type="res_veh_int0_passenger" depart="88.56" departLane="best" departSpeed="max" from="E22" to="E22.488"/>
    <trip id="res_veh_int0124" type="res_veh_int0_passenger" depart="89.28" departLane="best" departSpeed="max" from="E22" to="E22.488"/>
    <trip id="res_veh_int0126" type="res_veh_int0_passenger" depart="90.72" departLane="best" departSpeed="max" from="E22" to="E22.488"/>
    <trip id="res_veh_int0128" type="res_veh_int0_passenger" depart="92.16" departLane="best" departSpeed="max" from="E22" to="E18.410"/>
    <trip id="res_veh_int0131" type="res_veh_int0_passenger" depart="94.32" departLane="best" departSpeed="max" from="E22" to="E18.410"/>
    <trip id="res_veh_int0132" type="res_veh_int0_passenger" depart="95.04" departLane="best" departSpeed="max" from="E22" to="E30.558"/>
    <trip id="res_veh_int0134" type="res_veh_int0_passenger" depart="96.48" departLane="best" departSpeed="max" from="E22" to="E18.410"/>
    <trip id="res_veh_int0135" type="res_veh_int0_passenger" depart="97.20" departLane="best" departSpeed="max" from="E22" to="E22.488"/>
    <trip id="res_veh_int0137" type="res_veh_int0_passenger" depart="98.64" departLane="best" departSpeed="max" from="E22" to="E18.410"/>
    <trip id="res_veh_int0138" type="res_veh_int0_passenger" depart="99.36" departLane="best" departSpeed="max" from="E22" to="E30.558"/>
    <trip id="res_veh_int0139" type="res_veh_int0_passenger" depart="100.08" departLane="best" departSpeed="max" from="E22" to="E30.558"/>
    <trip id="res_veh_int0140" type="res_veh_int0_passenger" depart="100.80" departLane="best" departSpeed="max" from="E22" to="E18.410"/>
    <trip id="res_veh_int0141" type="res_veh_int0_passenger" depart="101.52" departLane="best" departSpeed="max" from="E22" to="E22.488"/>
    <trip id="res_veh_int0143" type="res_veh_int0_passenger" depart="102.96" departLane="best" departSpeed="max" from="E22" to="E18.410"/>
    <trip id="res_veh_int0144" type="res_veh_int0_passenger" depart="103.68" departLane="best" departSpeed="max" from="E22" to="E22.488"/>
    <trip id="res_veh_int0146" type="res_veh_int0_passenger" depart="105.12" departLane="best" departSpeed="max" from="E22" to="E22.488"/>
    <trip id="res_veh_int0147" type="res_veh_int0_passenger" depart="105.84" departLane="best" departSpeed="max" from="E22" to="E30.558"/>
    <trip id="res_veh_int0148" type="res_veh_int0_passenger" depart="106.56" departLane="best" departSpeed="max" from="E22" to="E18.410"/>
    <trip id="res_veh_int0150" type="res_veh_int0_passenger" depart="108.00" departLane="best" departSpeed="max" from="E22" to="E30.558"/>
    <trip id="res_veh_int0151" type="res_veh_int0_passenger" depart="108.72" departLane="best" departSpeed="max" from="E22" to="E30.558"/>
    <trip id="res_veh_int0152" type="res_veh_int0_passenger" depart="109.44" departLane="best" departSpeed="max" from="E22" to="E18.410"/>
    <trip id="res_veh_int0155" type="res_veh_int0_passenger" depart="111.60" departLane="best" departSpeed="max" from="E22" to="E18.410"/>
    <trip id="res_veh_int0156" type="res_veh_int0_passenger" depart="112.32" departLane="best" departSpeed="max" from="E22" to="E18.410"/>
    <trip id="res_veh_int0158" type="res_veh_int0_passenger" depart="113.76" departLane="best" departSpeed="max" from="E22" to="E30.558"/>
    <trip id="res_veh_int0162" type="res_veh_int0_passenger" depart="116.64" departLane="best" departSpeed="max" from="E22" to="E30.558"/>
    <trip id="res_veh_int0165" type="res_veh_int0_passenger" depart="118.80" departLane="best" departSpeed="max" from="E22" to="E22.488"/>
    <trip id="res_veh_int0166" type="res_veh_int0_passenger" depart="119.52" departLane="best" departSpeed="max" from="E22" to="E18.410"/>
    <trip id="res_veh_int0169" type="res_veh_int0_passenger" depart="121.68" departLane="best" departSpeed="max" from="E22" to="E22.488"/>
    <trip id="res_veh_int0170" type="res_veh_int0_passenger" depart="122.40" departLane="best" departSpeed="max" from="E22" to="E18.410"/>
    <trip id="res_veh_int0171" type="res_veh_int0_passenger" depart="123.12" departLane="best" departSpeed="max" from="E22" to="E18.410"/>
    <trip id="res_veh_int0173" type="res_veh_int0_passenger" depart="124.56" departLane="best" departSpeed="max" from="E22" to="E22.488"/>
    <trip id="res_veh_int0174" type="res_veh_int0_passenger" depart="125.28" departLane="best" departSpeed="max" from="E22" to="E22.488"/>
    <trip id="res_veh_int0175" type="res_veh_int0_passenger" depart="126.00" departLane="best" departSpeed="max" from="E22" to="E30.558"/>
    <trip id="res_veh_int0176" type="res_veh_int0_passenger" depart="126.72" departLane="best" departSpeed="max" from="E22" to="E18.410"/>
    <trip id="res_veh_int0177" type="res_veh_int0_passenger" depart="127.44" departLane="best" departSpeed="max" from="E22" to="E18.410"/>
    <trip id="res_veh_int0178" type="res_veh_int0_passenger" depart="128.16" departLane="best" departSpeed="max" from="E22" to="E22.488"/>
    <trip id="res_veh_int0179" type="res_veh_int0_passenger" depart="128.88" departLane="best" departSpeed="max" from="E22" to="E22.488"/>
    <trip id="res_veh_int0180" type="res_veh_int0_passenger" depart="129.60" departLane="best" departSpeed="max" from="E22" to="E22.488"/>
    <trip id="res_veh_int0181" type="res_veh_int0_passenger" depart="130.32" departLane="best" departSpeed="max" from="E22" to="E30.558"/>
    <trip id="res_veh_int0182" type="res_veh_int0_passenger" depart="131.04" departLane="best" departSpeed="max" from="E22" to="E30.558"/>
    <trip id="res_veh_int0183" type="res_veh_int0_passenger" depart="131.76" departLane="best" departSpeed="max" from="E22" to="E30.558"/>
    <trip id="res_veh_int0185" type="res_veh_int0_passenger" depart="133.20" departLane="best" departSpeed="max" from="E22" to="E30.558"/>
    <trip id="res_veh_int0186" type="res_veh_int0_passenger" depart="133.92" departLane="best" departSpeed="max" from="E22" to="E30.558"/>
    <trip id="res_veh_int0187" type="res_veh_int0_passenger" depart="134.64" departLane="best" departSpeed="max" from="E22" to="E18.410"/>
    <trip id="res_veh_int0188" type="res_veh_int0_passenger" depart="135.36" departLane="best" departSpeed="max" from="E22" to="E22.488"/>
    <trip id="res_veh_int0190" type="res_veh_int0_passenger" depart="136.80" departLane="best" departSpeed="max" from="E22" to="E22.488"/>
    <trip id="res_veh_int0191" type="res_veh_int0_passenger" depart="137.52" departLane="best" departSpeed="max" from="E22" to="E22.488"/>
    <trip id="res_veh_int0192" type="res_veh_int0_passenger" depart="138.24" departLane="best" departSpeed="max" from="E22" to="E22.488"/>
    <trip id="res_veh_int0193" type="res_veh_int0_passenger" depart="138.96" departLane="best" departSpeed="max" from="E22" to="E22.488"/>
    <trip id="res_veh_int0194" type="res_veh_int0_passenger" depart="139.68" departLane="best" departSpeed="max" from="E22" to="E30.558"/>
    <trip id="res_veh_int0195" type="res_veh_int0_passenger" depart="140.40" departLane="best" departSpeed="max" from="E22" to="E30.558"/>
    <trip id="res_veh_int0196" type="res_veh_int0_passenger" depart="141.12" departLane="best" departSpeed="max" from="E22" to="E30.558"/>
    <trip id="res_veh_int0197" type="res_veh_int0_passenger" depart="141.84" departLane="best" departSpeed="max" from="E22" to="E22.488"/>
    <trip id="res_veh_int0198" type="res_veh_int0_passenger" depart="142.56" departLane="best" departSpeed="max" from="E22" to="E30.558"/>
    <trip id="res_veh_int0199" type="res_veh_int0_passenger" depart="143.28" departLane="best" departSpeed="max" from="E22" to="E22.488"/>
    <trip id="res_veh_int0200" type="res_veh_int0_passenger" depart="144.00" departLane="best" departSpeed="max" from="E22" to="E18.410"/>
    <trip id="res_veh_int0202" type="res_veh_int0_passenger" depart="145.44" departLane="best" departSpeed="max" from="E22" to="E18.410"/>
    <trip id="res_veh_int0203" type="res_veh_int0_passenger" depart="146.16" departLane="best" departSpeed="max" from="E22" to="E30.558"/>
    <trip id="res_veh_int0204" type="res_veh_int0_passenger" depart="146.88" departLane="best" departSpeed="max" from="E22" to="E22.488"/>
    <trip id="res_veh_int0206" type="res_veh_int0_passenger" depart="148.32" departLane="best" departSpeed="max" from="E22" to="E18.410"/>
    <trip id="res_veh_int0207" type="res_veh_int0_passenger" depart="149.04" departLane="best" departSpeed="max" from="E22" to="E18.410"/>
    <trip id="res_veh_int0208" type="res_veh_int0_passenger" depart="149.76" departLane="best" departSpeed="max" from="E22" to="E22.488"/>
    <trip id="res_veh_int0209" type="res_veh_int0_passenger" depart="150.48" departLane="best" departSpeed="max" from="E22" to="E18.410"/>
    <trip id="res_veh_int0210" type="res_veh_int0_passenger" depart="151.20" departLane="best" departSpeed="max" from="E22" to="E30.558"/>
    <trip id="res_veh_int0211" type="res_veh_int0_passenger" depart="151.92" departLane="best" departSpeed="max" from="E22" to="E30.558"/>
    <trip id="res_veh_int0212" type="res_veh_int0_passenger" depart="152.64" departLane="best" departSpeed="max" from="E22" to="E18.410"/>
    <trip id="res_veh_int0213" type="res_veh_int0_passenger" depart="153.36" departLane="best" departSpeed="max" from="E22" to="E18.410"/>
    <trip id="res_veh_int0215" type="res_veh_int0_passenger" depart="154.80" departLane="best" departSpeed="max" from="E22" to="E22.488"/>
    <trip id="res_veh_int0217" type="res_veh_int0_passenger" depart="156.24" departLane="best" departSpeed="max" from="E22" to="E18.410"/>
    <trip id="res_veh_int0222" type="res_veh_int0_passenger" depart="159.84" departLane="best" departSpeed="max" from="E22" to="E30.558"/>
    <trip id="res_veh_int0223" type="res_veh_int0_passenger" depart="160.56" departLane="best" departSpeed="max" from="E22" to="E30.558"/>
    <trip id="res_veh_int0224" type="res_veh_int0_passenger" depart="161.28" departLane="best" departSpeed="max" from="E22" to="E30.558"/>
    <trip id="res_veh_int0225" type="res_veh_int0_passenger" depart="162.00" departLane="best" departSpeed="max" from="E22" to="E30.558"/>
    <trip id="res_veh_int0226" type="res_veh_int0_passenger" depart="162.72" departLane="best" departSpeed="max" from="E22" to="E22.488"/>
    <trip id="res_veh_int0227" type="res_veh_int0_passenger" depart="163.44" departLane="best" departSpeed="max" from="E22" to="E30.558"/>
    <trip id="res_veh_int0228" type="res_veh_int0_passenger" depart="164.16" departLane="best" departSpeed="max" from="E22" to="E30.558"/>
    <trip id="res_veh_int0229" type="res_veh_int0_passenger" depart="164.88" departLane="best" departSpeed="max" from="E22" to="E22.488"/>
    <trip id="res_veh_int0230" type="res_veh_int0_passenger" depart="165.60" departLane="best" departSpeed="max" from="E22" to="E22.488"/>
    <trip id="res_veh_int0231" type="res_veh_int0_passenger" depart="166.32" departLane="best" departSpeed="max" from="E22" to="E22.488"/>
    <trip id="res_veh_int0232" type="res_veh_int0_passenger" depart="167.04" departLane="best" departSpeed="max" from="E22" to="E18.410"/>
    <trip id="res_veh_int0233" type="res_veh_int0_passenger" depart="167.76" departLane="best" departSpeed="max" from="E22" to="E30.558"/>
    <trip id="res_veh_int0234" type="res_veh_int0_passenger" depart="168.48" departLane="best" departSpeed="max" from="E22" to="E18.410"/>
    <trip id="res_veh_int0235" type="res_veh_int0_passenger" depart="169.20" departLane="best" departSpeed="max" from="E22" to="E30.558"/>
    <trip id="res_veh_int0236" type="res_veh_int0_passenger" depart="169.92" departLane="best" departSpeed="max" from="E22" to="E18.410"/>
    <trip id="res_veh_int0238" type="res_veh_int0_passenger" depart="171.36" departLane="best" departSpeed="max" from="E22" to="E30.558"/>
    <trip id="res_veh_int0240" type="res_veh_int0_passenger" depart="172.80" departLane="best" departSpeed="max" from="E22" to="E18.410"/>
    <trip id="res_veh_int0243" type="res_veh_int0_passenger" depart="174.96" departLane="best" departSpeed="max" from="E22" to="E30.558"/>
    <trip id="res_veh_int0244" type="res_veh_int0_passenger" depart="175.68" departLane="best" departSpeed="max" from="E22" to="E30.558"/>
    <trip id="res_veh_int0245" type="res_veh_int0_passenger" depart="176.40" departLane="best" departSpeed="max" from="E22" to="E18.410"/>
    <trip id="res_veh_int0246" type="res_veh_int0_passenger" depart="177.12" departLane="best" departSpeed="max" from="E22" to="E18.410"/>
    <trip id="res_veh_int0247" type="res_veh_int0_passenger" depart="177.84" departLane="best" departSpeed="max" from="E22" to="E30.558"/>
    <trip id="res_veh_int0248" type="res_veh_int0_passenger" depart="178.56" departLane="best" departSpeed="max" from="E22" to="E18.410"/>
    <trip id="res_veh_int0249" type="res_veh_int0_passenger" depart="179.28" departLane="best" departSpeed="max" from="E22" to="E18.410"/>
    <trip id="res_veh_int0250" type="res_veh_int0_passenger" depart="180.00" departLane="best" departSpeed="max" from="E22" to="E18.410"/>
    <trip id="res_veh_int0251" type="res_veh_int0_passenger" depart="180.72" departLane="best" departSpeed="max" from="E22" to="E30.558"/>
    <trip id="res_veh_int0252" type="res_veh_int0_passenger" depart="181.44" departLane="best" departSpeed="max" from="E22" to="E30.558"/>
    <trip id="res_veh_int0253" type="res_veh_int0_passenger" depart="182.16" departLane="best" departSpeed="max" from="E22" to="E22.488"/>
    <trip id="res_veh_int0254" type="res_veh_int0_passenger" depart="182.88" departLane="best" departSpeed="max" from="E22" to="E22.488"/>
    <trip id="res_veh_int0255" type="res_veh_int0_passenger" depart="183.60" departLane="best" departSpeed="max" from="E22" to="E22.488"/>
    <trip id="res_veh_int0256" type="res_veh_int0_passenger" depart="184.32" departLane="best" departSpeed="max" from="E22" to="E22.488"/>
    <trip id="res_veh_int0258" type="res_veh_int0_passenger" depart="185.76" departLane="best" departSpeed="max" from="E22" to="E18.410"/>
    <trip id="res_veh_int0259" type="res_veh_int0_passenger" depart="186.48" departLane="best" departSpeed="max" from="E22" to="E30.558"/>
    <trip id="res_veh_int0260" type="res_veh_int0_passenger" depart="187.20" departLane="best" departSpeed="max" from="E22" to="E22.488"/>
    <trip id="res_veh_int0263" type="res_veh_int0_passenger" depart="189.36" departLane="best" departSpeed="max" from="E22" to="E18.410"/>
    <trip id="res_veh_int0264" type="res_veh_int0_passenger" depart="190.08" departLane="best" departSpeed="max" from="E22" to="E18.410"/>
    <trip id="res_veh_int0265" type="res_veh_int0_passenger" depart="190.80" departLane="best" departSpeed="max" from="E22" to="E30.558"/>
    <trip id="res_veh_int0266" type="res_veh_int0_passenger" depart="191.52" departLane="best" departSpeed="max" from="E22" to="E18.410"/>