<routes>

<!-- generated on 2025-08-07 09:23:56.417092 by randomTrips.py v1_23_1+0000-676720d13f6
<configuration>
    <net-file value="osm.net.xml.gz"/>
    <weights-prefix value="random_edge_priority_interval_0"/>
    <output-trip-file value="osm.res_truck.interval_0.trips.xml"/>
    <route-file value="osm.res_truck.interval_0.rou.xml"/>
    <prefix value="res_truck_int0"/>
    <trip-attributes value="departLane=&quot;best&quot;"/>
    <fringe-start-attributes value="departSpeed=&quot;max&quot;"/>
    <vehicle-class value="truck"/>
    <vclass value="truck"/>
    <remove-loops value="True"/>
    <validate value="True"/>
    <end value="1800.0"/>
    <insertion-rate value="250.0"/>
</configuration>
-->

<!-- generated on 2025-08-07 09:23:56 by Eclipse SUMO duarouter Version 1.23.1
<duarouterConfiguration xmlns:xsi="http://www.w3.org/2001/XMLSchema-instance" xsi:noNamespaceSchemaLocation="http://sumo.dlr.de/xsd/duarouterConfiguration.xsd">

    <input>
        <net-file value="osm.net.xml.gz"/>
        <route-files value="osm.res_truck.interval_0.trips.xml"/>
    </input>

    <output>
        <output-file value="osm.res_truck.interval_0.trips.xml.tmp"/>
        <alternatives-output value="NUL"/>
        <write-trips value="true"/>
    </output>

    <processing>
        <remove-loops value="true"/>
    </processing>

    <time>
        <begin value="0.0"/>
        <end value="1800.0"/>
    </time>

    <report>
        <no-warnings value="true"/>
        <ignore-errors value="true"/>
        <no-step-log value="true"/>
    </report>

</duarouterConfiguration>
-->

    <vType id="res_truck_int0_truck" vClass="truck"/>
    <trip id="res_truck_int00" type="res_truck_int0_truck" depart="0.00" departLane="best" departSpeed="max" from="E22" to="E18.410"/>
    <trip id="res_truck_int01" type="res_truck_int0_truck" depart="14.40" departLane="best" departSpeed="max" from="E22" to="E18.410"/>
    <trip id="res_truck_int02" type="res_truck_int0_truck" depart="28.80" departLane="best" departSpeed="max" from="E22" to="E30.558"/>
    <trip id="res_truck_int03" type="res_truck_int0_truck" depart="43.20" departLane="best" departSpeed="max" from="E22" to="E18.410"/>
    <trip id="res_truck_int04" type="res_truck_int0_truck" depart="57.60" departLane="best" departSpeed="max" from="E22" to="E18.410"/>
    <trip id="res_truck_int05" type="res_truck_int0_truck" depart="72.00" departLane="best" departSpeed="max" from="E22" to="E30.558"/>
    <trip id="res_truck_int06" type="res_truck_int0_truck" depart="86.40" departLane="best" departSpeed="max" from="E22" to="E18.410"/>
    <trip id="res_truck_int07" type="res_truck_int0_truck" depart="100.80" departLane="best" departSpeed="max" from="E22" to="E30.558"/>
    <trip id="res_truck_int08" type="res_truck_int0_truck" depart="115.20" departLane="best" departSpeed="max" from="E22" to="E30.558"/>
    <trip id="res_truck_int09" type="res_truck_int0_truck" depart="129.60" departLane="best" departSpeed="max" from="E22" to="E18.410"/>
    <trip id="res_truck_int010" type="res_truck_int0_truck" depart="144.00" departLane="best" departSpeed="max" from="E22" to="E30.558"/>
    <trip id="res_truck_int011" type="res_truck_int0_truck" depart="158.40" departLane="best" departSpeed="max" from="E22" to="E18.410"/>
    <trip id="res_truck_int012" type="res_truck_int0_truck" depart="172.80" departLane="best" departSpeed="max" from="E22" to="E22.488"/>
    <trip id="res_truck_int013" type="res_truck_int0_truck" depart="187.20" departLane="best" departSpeed="max" from="E22" to="E18.410"/>
    <trip id="res_truck_int014" type="res_truck_int0_truck" depart="201.60" departLane="best" departSpeed="max" from="E22" to="E30.558"/>
    <trip id="res_truck_int015" type="res_truck_int0_truck" depart="216.00" departLane="best" departSpeed="max" from="E22" to="E30.558"/>
    <trip id="res_truck_int017" type="res_truck_int0_truck" depart="244.80" departLane="best" departSpeed="max" from="E22" to="E30.558"/>
    <trip id="res_truck_int018" type="res_truck_int0_truck" depart="259.20" departLane="best" departSpeed="max" from="E22" to="E30.558"/>
    <trip id="res_truck_int019" type="res_truck_int0_truck" depart="273.60" departLane="best" departSpeed="max" from="E22" to="E30.558"/>
    <trip id="res_truck_int020" type="res_truck_int0_truck" depart="288.00" departLane="best" departSpeed="max" from="E22" to="E18.410"/>
    <trip id="res_truck_int021" type="res_truck_int0_truck" depart="302.40" departLane="best" departSpeed="max" from="E22" to="E22.488"/>
    <trip id="res_truck_int022" type="res_truck_int0_truck" depart="316.80" departLane="best" departSpeed="max" from="E22" to="E18.410"/>
    <trip id="res_truck_int023" type="res_truck_int0_truck" depart="331.20" departLane="best" departSpeed="max" from="E22" to="E22.488"/>
    <trip id="res_truck_int024" type="res_truck_int0_truck" depart="345.60" departLane="best" departSpeed="max" from="E22" to="E22.488"/>
    <trip id="res_truck_int025" type="res_truck_int0_truck" depart="360.00" departLane="best" departSpeed="max" from="E22" to="E18.410"/>
    <trip id="res_truck_int027" type="res_truck_int0_truck" depart="388.80" departLane="best" departSpeed="max" from="E22" to="E30.558"/>
    <trip id="res_truck_int028" type="res_truck_int0_truck" depart="403.20" departLane="best" departSpeed="max" from="E22" to="E30.558"/>
    <trip id="res_truck_int029" type="res_truck_int0_truck" depart="417.60" departLane="best" departSpeed="max" from="E22" to="E22.488"/>
    <trip id="res_truck_int030" type="res_truck_int0_truck" depart="432.00" departLane="best" departSpeed="max" from="E22" to="E30.558"/>
    <trip id="res_truck_int031" type="res_truck_int0_truck" depart="446.40" departLane="best" departSpeed="max" from="E22" to="E30.558"/>
    <trip id="res_truck_int033" type="res_truck_int0_truck" depart="475.20" departLane="best" departSpeed="max" from="E22" to="E18.410"/>
    <trip id="res_truck_int034" type="res_truck_int0_truck" depart="489.60" departLane="best" departSpeed="max" from="E22" to="E22.488"/>
    <trip id="res_truck_int036" type="res_truck_int0_truck" depart="518.40" departLane="best" departSpeed="max" from="E22" to="E22.488"/>
    <trip id="res_truck_int037" type="res_truck_int0_truck" depart="532.80" departLane="best" departSpeed="max" from="E22" to="E22.488"/>
    <trip id="res_truck_int038" type="res_truck_int0_truck" depart="547.20" departLane="best" departSpeed="max" from="E22" to="E22.488"/>
    <trip id="res_truck_int039" type="res_truck_int0_truck" depart="561.60" departLane="best" departSpeed="max" from="E22" to="E18.410"/>
    <trip id="res_truck_int040" type="res_truck_int0_truck" depart="576.00" departLane="best" departSpeed="max" from="E22" to="E22.488"/>
    <trip id="res_truck_int042" type="res_truck_int0_truck" depart="604.80" departLane="best" departSpeed="max" from="E22" to="E18.410"/>
    <trip id="res_truck_int043" type="res_truck_int0_truck" depart="619.20" departLane="best" departSpeed="max" from="E22" to="E30.558"/>
    <trip id="res_truck_int044" type="res_truck_int0_truck" depart="633.60" departLane="best" departSpeed="max" from="E22" to="E18.410"/>
    <trip id="res_truck_int045" type="res_truck_int0_truck" depart="648.00" departLane="best" departSpeed="max" from="E22" to="E30.558"/>
    <trip id="res_truck_int046" type="res_truck_int0_truck" depart="662.40" departLane="best" departSpeed="max" from="E22" to="E22.488"/>
    <trip id="res_truck_int047" type="res_truck_int0_truck" depart="676.80" departLane="best" departSpeed="max" from="E22" to="E22.488"/>
    <trip id="res_truck_int048" type="res_truck_int0_truck" depart="691.20" departLane="best" departSpeed="max" from="E22" to="E30.558"/>
    <trip id="res_truck_int050" type="res_truck_int0_truck" depart="720.00" departLane="best" departSpeed="max" from="E22" to="E30.558"/>
    <trip id="res_truck_int051" type="res_truck_int0_truck" depart="734.40" departLane="best" departSpeed="max" from="E22" to="E30.558"/>
    <trip id="res_truck_int052" type="res_truck_int0_truck" depart="748.80" departLane="best" departSpeed="max" from="E22" to="E30.558"/>
    <trip id="res_truck_int053" type="res_truck_int0_truck" depart="763.20" departLane="best" departSpeed="max" from="E22" to="E22.488"/>
    <trip id="res_truck_int055" type="res_truck_int0_truck" depart="792.00" departLane="best" departSpeed="max" from="E22" to="E22.488"/>
    <trip id="res_truck_int056" type="res_truck_int0_truck" depart="806.40" departLane="best" departSpeed="max" from="E22" to="E18.410"/>
    <trip id="res_truck_int058" type="res_truck_int0_truck" depart="835.20" departLane="best" departSpeed="max" from="E22" to="E30.558"/>
    <trip id="res_truck_int059" type="res_truck_int0_truck" depart="849.60" departLane="best" departSpeed="max" from="E22" to="E18.410"/>
    <trip id="res_truck_int060" type="res_truck_int0_truck" depart="864.00" departLane="best" departSpeed="max" from="E22" to="E30.558"/>
    <trip id="res_truck_int061" type="res_truck_int0_truck" depart="878.40" departLane="best" departSpeed="max" from="E22" to="E30.558"/>
    <trip id="res_truck_int062" type="res_truck_int0_truck" depart="892.80" departLane="best" departSpeed="max" from="E22" to="E22.488"/>
    <trip id="res_truck_int065" type="res_truck_int0_truck" depart="936.00" departLane="best" departSpeed="max" from="E22" to="E18.410"/>
    <trip id="res_truck_int067" type="res_truck_int0_truck" depart="964.80" departLane="best" departSpeed="max" from="E22" to="E22.488"/>
    <trip id="res_truck_int069" type="res_truck_int0_truck" depart="993.60" departLane="best" departSpeed="max" from="E22" to="E18.410"/>
    <trip id="res_truck_int070" type="res_truck_int0_truck" depart="1008.00" departLane="best" departSpeed="max" from="E22" to="E30.558"/>
    <trip id="res_truck_int072" type="res_truck_int0_truck" depart="1036.80" departLane="best" departSpeed="max" from="E22" to="E18.410"/>
    <trip id="res_truck_int073" type="res_truck_int0_truck" depart="1051.20" departLane="best" departSpeed="max" from="E22" to="E30.558"/>
    <trip id="res_truck_int074" type="res_truck_int0_truck" depart="1065.60" departLane="best" departSpeed="max" from="E22" to="E22.488"/>
    <trip id="res_truck_int075" type="res_truck_int0_truck" depart="1080.00" departLane="best" departSpeed="max" from="E22" to="E30.558"/>
    <trip id="res_truck_int076" type="res_truck_int0_truck" depart="1094.40" departLane="best" departSpeed="max" from="E22" to="E30.558"/>
    <trip id="res_truck_int077" type="res_truck_int0_truck" depart="1108.80" departLane="best" departSpeed="max" from="E22" to="E18.410"/>
    <trip id="res_truck_int078" type="res_truck_int0_truck" depart="1123.20" departLane="best" departSpeed="max" from="E22" to="E30.558"/>
    <trip id="res_truck_int079" type="res_truck_int0_truck" depart="1137.60" departLane="best" departSpeed="max" from="E22" to="E18.410"/>
    <trip id="res_truck_int080" type="res_truck_int0_truck" depart="1152.00" departLane="best" departSpeed="max" from="E22" to="E30.558"/>
    <trip id="res_truck_int082" type="res_truck_int0_truck" depart="1180.80" departLane="best" departSpeed="max" from="E22" to="E18.410"/>
    <trip id="res_truck_int083" type="res_truck_int0_truck" depart="1195.20" departLane="best" departSpeed="max" from="E22" to="E30.558"/>
    <trip id="res_truck_int084" type="res_truck_int0_truck" depart="1209.60" departLane="best" departSpeed="max" from="E22" to="E18.410"/>
    <trip id="res_truck_int085" type="res_truck_int0_truck" depart="1224.00" departLane="best" departSpeed="max" from="E22" to="E30.558"/>
    <trip id="res_truck_int087" type="res_truck_int0_truck" depart="1252.80" departLane="best" departSpeed="max" from="E22" to="E18.410"/>
    <trip id="res_truck_int088" type="res_truck_int0_truck" depart="1267.20" departLane="best" departSpeed="max" from="E22" to="E22.488"/>
    <trip id="res_truck_int089" type="res_truck_int0_truck" depart="1281.60" departLane="best" departSpeed="max" from="E22" to="E22.488"/>
    <trip id="res_truck_int090" type="res_truck_int0_truck" depart="1296.00" departLane="best" departSpeed="max" from="E22" to="E30.558"/>
    <trip id="res_truck_int091" type="res_truck_int0_truck" depart="1310.40" departLane="best" departSpeed="max" from="E22" to="E18.410"/>
    <trip id="res_truck_int092" type="res_truck_int0_truck" depart="1324.80" departLane="best" departSpeed="max" from="E22" to="E22.488"/>
    <trip id="res_truck_int093" type="res_truck_int0_truck" depart="1339.20" departLane="best" departSpeed="max" from="E22" to="E18.410"/>
    <trip id="res_truck_int094" type="res_truck_int0_truck" depart="1353.60" departLane="best" departSpeed="max" from="E22" to="E22.488"/>
    <trip id="res_truck_int095" type="res_truck_int0_truck" depart="1368.00" departLane="best" departSpeed="max" from="E22" to="E22.488"/>
    <trip id="res_truck_int098" type="res_truck_int0_truck" depart="1411.20" departLane="best" departSpeed="max" from="E22" to="E18.410"/>
    <trip id="res_truck_int0101" type="res_truck_int0_truck" depart="1454.40" departLane="best" departSpeed="max" from="E22" to="E18.410"/>
    <trip id="res_truck_int0102" type="res_truck_int0_truck" depart="1468.80" departLane="best" departSpeed="max" from="E22" to="E18.410"/>
    <trip id="res_truck_int0103" type="res_truck_int0_truck" depart="1483.20" departLane="best" departSpeed="max" from="E22" to="E18.410"/>
    <trip id="res_truck_int0106" type="res_truck_int0_truck" depart="1526.40" departLane="best" departSpeed="max" from="E22" to="E22.488"/>
    <trip id="res_truck_int0108" type="res_truck_int0_truck" depart="1555.20" departLane="best" departSpeed="max" from="E22" to="E30.558"/>
    <trip id="res_truck_int0109" type="res_truck_int0_truck" depart="1569.60" departLane="best" departSpeed="max" from="E22" to="E22.488"/>
    <trip id="res_truck_int0110" type="res_truck_int0_truck" depart="1584.00" departLane="best" departSpeed="max" from="E22" to="E30.558"/>
    <trip id="res_truck_int0111" type="res_truck_int0_truck" depart="1598.40" departLane="best" departSpeed="max" from="E22" to="E30.558"/>
    <trip id="res_truck_int0112" type="res_truck_int0_truck" depart="1612.80" departLane="best" departSpeed="max" from="E22" to="E30.558"/>
    <trip id="res_truck_int0115" type="res_truck_int0_truck" depart="1656.00" departLane="best" departSpeed="max" from="E22" to="E18.410"/>
    <trip id="res_truck_int0116" type="res_truck_int0_truck" depart="1670.40" departLane="best" departSpeed="max" from="E22" to="E30.558"/>
    <trip id="res_truck_int0117" type="res_truck_int0_truck" depart="1684.80" departLane="best" departSpeed="max" from="E22" to="E18.410"/>
    <trip id="res_truck_int0118" type="res_truck_int0_truck" depart="1699.20" departLane="best" departSpeed="max" from="E22" to="E18.410"/>
    <trip id="res_truck_int0119" type="res_truck_int0_truck" depart="1713.60" departLane="best" departSpeed="max" from="E22" to="E30.558"/>
    <trip id="res_truck_int0120" type="res_truck_int0_truck" depart="1728.00" departLane="best" departSpeed="max" from="E22" to="E30.558"/>
    <trip id="res_truck_int0122" type="res_truck_int0_truck" depart="1756.80" departLane="best" departSpeed="max" from="E22" to="E30.558"/>
    <trip id="res_truck_int0123" type="res_truck_int0_truck" depart="1771.20" departLane="best" departSpeed="max" from="E22" to="E22.488"/>
    <trip id="res_truck_int0124" type="res_truck_int0_truck" depart="1785.60" departLane="best" departSpeed="max" from="E22" to="E22.488"/>

<!-- generated on 2025-08-07 09:23:57.668057 by randomTrips.py v1_23_1+0000-676720d13f6
<configuration>
    <net-file value="osm.net.xml.gz"/>
    <weights-prefix value="random_edge_priority_interval_1"/>
    <output-trip-file value="osm.res_truck.interval_1.trips.xml"/>
    <route-file value="osm.res_truck.interval_1.rou.xml"/>
    <prefix value="res_truck_int1"/>
    <trip-attributes value="departLane=&quot;best&quot;"/>
    <fringe-start-attributes value="departSpeed=&quot;max&quot;"/>
    <vehicle-class value="truck"/>
    <vclass value="truck"/>
    <remove-loops value="True"/>
    <validate value="True"/>
    <begin value="1801.0"/>
    <insertion-rate value="250.13896609227348"/>
</configuration>
-->

<!-- generated on 2025-08-07 09:23:57 by Eclipse SUMO duarouter Version 1.23.1
<duarouterConfiguration xmlns:xsi="http://www.w3.org/2001/XMLSchema-instance" xsi:noNamespaceSchemaLocation="http://sumo.dlr.de/xsd/duarouterConfiguration.xsd">

    <input>
        <net-file value="osm.net.xml.gz"/>
        <route-files value="osm.res_truck.interval_1.trips.xml"/>
    </input>

    <output>
        <output-file value="osm.res_truck.interval_1.trips.xml.tmp"/>
        <alternatives-output value="NUL"/>
        <write-trips value="true"/>
    </output>

    <processing>
        <remove-loops value="true"/>
    </processing>

    <time>
        <begin value="1801.0"/>
        <end value="3600.0"/>
    </time>

    <report>
        <no-warnings value="true"/>
        <ignore-errors value="true"/>
        <no-step-log value="true"/>
    </report>

</duarouterConfiguration>
-->

    <vType id="res_truck_int1_truck" vClass="truck"/>
    <trip id="res_truck_int10" type="res_truck_int1_truck" depart="1801.00" departLane="best" departSpeed="max" from="E31" to="E18.410"/>
    <trip id="res_truck_int11" type="res_truck_int1_truck" depart="1815.39" departLane="best" departSpeed="max" from="E31" to="E18.410"/>
    <trip id="res_truck_int12" type="res_truck_int1_truck" depart="1829.78" departLane="best" departSpeed="max" from="E31" to="E30.558"/>
    <trip id="res_truck_int13" type="res_truck_int1_truck" depart="1844.18" departLane="best" departSpeed="max" from="E31" to="E18.410"/>
    <trip id="res_truck_int14" type="res_truck_int1_truck" depart="1858.57" departLane="best" departSpeed="max" from="E31" to="E18.410"/>
    <trip id="res_truck_int15" type="res_truck_int1_truck" depart="1872.96" departLane="best" departSpeed="max" from="E31" to="E30.558"/>
    <trip id="res_truck_int16" type="res_truck_int1_truck" depart="1887.35" departLane="best" departSpeed="max" from="E31" to="E18.410"/>
    <trip id="res_truck_int17" type="res_truck_int1_truck" depart="1901.74" departLane="best" departSpeed="max" from="E31" to="E30.558"/>
    <trip id="res_truck_int18" type="res_truck_int1_truck" depart="1916.14" departLane="best" departSpeed="max" from="E31" to="E30.558"/>
    <trip id="res_truck_int19" type="res_truck_int1_truck" depart="1930.53" departLane="best" departSpeed="max" from="E31" to="E18.410"/>
    <trip id="res_truck_int110" type="res_truck_int1_truck" depart="1944.92" departLane="best" departSpeed="max" from="E31" to="E30.558"/>
    <trip id="res_truck_int111" type="res_truck_int1_truck" depart="1959.31" departLane="best" departSpeed="max" from="E31" to="E18.410"/>
    <trip id="res_truck_int113" type="res_truck_int1_truck" depart="1988.10" departLane="best" departSpeed="max" from="E31" to="E18.410"/>
    <trip id="res_truck_int114" type="res_truck_int1_truck" depart="2002.49" departLane="best" departSpeed="max" from="E31" to="E30.558"/>
    <trip id="res_truck_int115" type="res_truck_int1_truck" depart="2016.88" departLane="best" departSpeed="max" from="E31" to="E30.558"/>
    <trip id="res_truck_int116" type="res_truck_int1_truck" depart="2031.27" departLane="best" departSpeed="max" from="E31" to="E31.622"/>
    <trip id="res_truck_int117" type="res_truck_int1_truck" depart="2045.66" departLane="best" departSpeed="max" from="E31" to="E30.558"/>
    <trip id="res_truck_int118" type="res_truck_int1_truck" depart="2060.06" departLane="best" departSpeed="max" from="E31" to="E30.558"/>
    <trip id="res_truck_int119" type="res_truck_int1_truck" depart="2074.45" departLane="best" departSpeed="max" from="E31" to="E30.558"/>
    <trip id="res_truck_int120" type="res_truck_int1_truck" depart="2088.84" departLane="best" departSpeed="max" from="E31" to="E18.410"/>
    <trip id="res_truck_int122" type="res_truck_int1_truck" depart="2117.62" departLane="best" departSpeed="max" from="E31" to="E18.410"/>
    <trip id="res_truck_int125" type="res_truck_int1_truck" depart="2160.80" departLane="best" departSpeed="max" from="E31" to="E18.410"/>
    <trip id="res_truck_int126" type="res_truck_int1_truck" depart="2175.19" departLane="best" departSpeed="max" from="E31" to="E31.622"/>
    <trip id="res_truck_int127" type="res_truck_int1_truck" depart="2189.58" departLane="best" departSpeed="max" from="E31" to="E30.558"/>
    <trip id="res_truck_int128" type="res_truck_int1_truck" depart="2203.98" departLane="best" departSpeed="max" from="E31" to="E30.558"/>
    <trip id="res_truck_int130" type="res_truck_int1_truck" depart="2232.76" departLane="best" departSpeed="max" from="E31" to="E30.558"/>
    <trip id="res_truck_int131" type="res_truck_int1_truck" depart="2247.15" departLane="best" departSpeed="max" from="E31" to="E30.558"/>
    <trip id="res_truck_int132" type="res_truck_int1_truck" depart="2261.54" departLane="best" departSpeed="max" from="E31" to="E31.622"/>
    <trip id="res_truck_int133" type="res_truck_int1_truck" depart="2275.94" departLane="best" departSpeed="max" from="E31" to="E18.410"/>
    <trip id="res_truck_int135" type="res_truck_int1_truck" depart="2304.72" departLane="best" departSpeed="max" from="E31" to="E31.622"/>
    <trip id="res_truck_int139" type="res_truck_int1_truck" depart="2362.29" departLane="best" departSpeed="max" from="E31" to="E18.410"/>
    <trip id="res_truck_int141" type="res_truck_int1_truck" depart="2391.07" departLane="best" departSpeed="max" from="E31" to="E31.622"/>
    <trip id="res_truck_int142" type="res_truck_int1_truck" depart="2405.46" departLane="best" departSpeed="max" from="E31" to="E18.410"/>
    <trip id="res_truck_int143" type="res_truck_int1_truck" depart="2419.86" departLane="best" departSpeed="max" from="E31" to="E30.558"/>
    <trip id="res_truck_int144" type="res_truck_int1_truck" depart="2434.25" departLane="best" departSpeed="max" from="E31" to="E18.410"/>
    <trip id="res_truck_int145" type="res_truck_int1_truck" depart="2448.64" departLane="best" departSpeed="max" from="E31" to="E30.558"/>
    <trip id="res_truck_int148" type="res_truck_int1_truck" depart="2491.82" departLane="best" departSpeed="max" from="E31" to="E30.558"/>
    <trip id="res_truck_int149" type="res_truck_int1_truck" depart="2506.21" departLane="best" departSpeed="max" from="E31" to="E31.622"/>
    <trip id="res_truck_int150" type="res_truck_int1_truck" depart="2520.60" departLane="best" departSpeed="max" from="E31" to="E30.558"/>
    <trip id="res_truck_int151" type="res_truck_int1_truck" depart="2534.99" departLane="best" departSpeed="max" from="E31" to="E30.558"/>
    <trip id="res_truck_int152" type="res_truck_int1_truck" depart="2549.38" departLane="best" departSpeed="max" from="E31" to="E30.558"/>
    <trip id="res_truck_int154" type="res_truck_int1_truck" depart="2578.17" departLane="best" departSpeed="max" from="E31" to="E31.622"/>
    <trip id="res_truck_int156" type="res_truck_int1_truck" depart="2606.95" departLane="best" departSpeed="max" from="E31" to="E18.410"/>
    <trip id="res_truck_int157" type="res_truck_int1_truck" depart="2621.34" departLane="best" departSpeed="max" from="E31" to="E31.622"/>
    <trip id="res_truck_int158" type="res_truck_int1_truck" depart="2635.74" departLane="best" departSpeed="max" from="E31" to="E30.558"/>
    <trip id="res_truck_int159" type="res_truck_int1_truck" depart="2650.13" departLane="best" departSpeed="max" from="E31" to="E18.410"/>
    <trip id="res_truck_int160" type="res_truck_int1_truck" depart="2664.52" departLane="best" departSpeed="max" from="E31" to="E30.558"/>
    <trip id="res_truck_int161" type="res_truck_int1_truck" depart="2678.91" departLane="best" departSpeed="max" from="E31" to="E30.558"/>
    <trip id="res_truck_int163" type="res_truck_int1_truck" depart="2707.70" departLane="best" departSpeed="max" from="E31" to="E31.622"/>
    <trip id="res_truck_int164" type="res_truck_int1_truck" depart="2722.09" departLane="best" departSpeed="max" from="E31" to="E31.622"/>
    <trip id="res_truck_int165" type="res_truck_int1_truck" depart="2736.48" departLane="best" departSpeed="max" from="E31" to="E18.410"/>
    <trip id="res_truck_int166" type="res_truck_int1_truck" depart="2750.87" departLane="best" departSpeed="max" from="E31" to="E31.622"/>
    <trip id="res_truck_int168" type="res_truck_int1_truck" depart="2779.66" departLane="best" departSpeed="max" from="E31" to="E31.622"/>
    <trip id="res_truck_int169" type="res_truck_int1_truck" depart="2794.05" departLane="best" departSpeed="max" from="E31" to="E18.410"/>
    <trip id="res_truck_int170" type="res_truck_int1_truck" depart="2808.44" departLane="best" departSpeed="max" from="E31" to="E30.558"/>
    <trip id="res_truck_int171" type="res_truck_int1_truck" depart="2822.83" departLane="best" departSpeed="max" from="E31" to="E31.622"/>
    <trip id="res_truck_int172" type="res_truck_int1_truck" depart="2837.22" departLane="best" departSpeed="max" from="E31" to="E18.410"/>
    <trip id="res_truck_int173" type="res_truck_int1_truck" depart="2851.62" departLane="best" departSpeed="max" from="E31" to="E30.558"/>
    <trip id="res_truck_int175" type="res_truck_int1_truck" depart="2880.40" departLane="best" departSpeed="max" from="E31" to="E30.558"/>
    <trip id="res_truck_int176" type="res_truck_int1_truck" depart="2894.79" departLane="best" departSpeed="max" from="E31" to="E30.558"/>
    <trip id="res_truck_int177" type="res_truck_int1_truck" depart="2909.18" departLane="best" departSpeed="max" from="E31" to="E18.410"/>
    <trip id="res_truck_int178" type="res_truck_int1_truck" depart="2923.58" departLane="best" departSpeed="max" from="E31" to="E30.558"/>
    <trip id="res_truck_int179" type="res_truck_int1_truck" depart="2937.97" departLane="best" departSpeed="max" from="E31" to="E18.410"/>
    <trip id="res_truck_int180" type="res_truck_int1_truck" depart="2952.36" departLane="best" departSpeed="max" from="E31" to="E30.558"/>
    <trip id="res_truck_int181" type="res_truck_int1_truck" depart="2966.75" departLane="best" departSpeed="max" from="E31" to="E31.622"/>
    <trip id="res_truck_int182" type="res_truck_int1_truck" depart="2981.14" departLane="best" departSpeed="max" from="E31" to="E18.410"/>
    <trip id="res_truck_int183" type="res_truck_int1_truck" depart="2995.54" departLane="best" departSpeed="max" from="E31" to="E30.558"/>
    <trip id="res_truck_int184" type="res_truck_int1_truck" depart="3009.93" departLane="best" departSpeed="max" from="E31" to="E18.410"/>
    <trip id="res_truck_int185" type="res_truck_int1_truck" depart="3024.32" departLane="best" departSpeed="max" from="E31" to="E30.558"/>
    <trip id="res_truck_int186" type="res_truck_int1_truck" depart="3038.71" departLane="best" departSpeed="max" from="E31" to="E31.622"/>
    <trip id="res_truck_int187" type="res_truck_int1_truck" depart="3053.10" departLane="best" departSpeed="max" from="E31" to="E18.410"/>
    <trip id="res_truck_int190" type="res_truck_int1_truck" depart="3096.28" departLane="best" departSpeed="max" from="E31" to="E30.558"/>
    <trip id="res_truck_int191" type="res_truck_int1_truck" depart="3110.67" departLane="best" departSpeed="max" from="E31" to="E18.410"/>
    <trip id="res_truck_int193" type="res_truck_int1_truck" depart="3139.46" departLane="best" departSpeed="max" from="E31" to="E18.410"/>
    <trip id="res_truck_int196" type="res_truck_int1_truck" depart="3182.63" departLane="best" departSpeed="max" from="E31" to="E31.622"/>
    <trip id="res_truck_int197" type="res_truck_int1_truck" depart="3197.02" departLane="best" departSpeed="max" from="E31" to="E31.622"/>
    <trip id="res_truck_int198" type="res_truck_int1_truck" depart="3211.42" departLane="best" departSpeed="max" from="E31" to="E18.410"/>
    <trip id="res_truck_int199" type="res_truck_int1_truck" depart="3225.81" departLane="best" departSpeed="max" from="E31" to="E31.622"/>
    <trip id="res_truck_int1100" type="res_truck_int1_truck" depart="3240.20" departLane="best" departSpeed="max" from="E31" to="E31.622"/>
    <trip id="res_truck_int1101" type="res_truck_int1_truck" depart="3254.59" departLane="best" departSpeed="max" from="E31" to="E18.410"/>
    <trip id="res_truck_int1102" type="res_truck_int1_truck" depart="3268.98" departLane="best" departSpeed="max" from="E31" to="E18.410"/>
    <trip id="res_truck_int1103" type="res_truck_int1_truck" depart="3283.38" departLane="best" departSpeed="max" from="E31" to="E18.410"/>
    <trip id="res_truck_int1104" type="res_truck_int1_truck" depart="3297.77" departLane="best" departSpeed="max" from="E31" to="E31.622"/>
    <trip id="res_truck_int1105" type="res_truck_int1_truck" depart="3312.16" departLane="best" departSpeed="max" from="E31" to="E31.622"/>
    <trip id="res_truck_int1107" type="res_truck_int1_truck" depart="3340.94" departLane="best" departSpeed="max" from="E31" to="E31.622"/>
    <trip id="res_truck_int1108" type="res_truck_int1_truck" depart="3355.34" departLane="best" departSpeed="max" from="E31" to="E30.558"/>
    <trip id="res_truck_int1110" type="res_truck_int1_truck" depart="3384.12" departLane="best" departSpeed="max" from="E31" to="E30.558"/>
    <trip id="res_truck_int1111" type="res_truck_int1_truck" depart="3398.51" departLane="best" departSpeed="max" from="E31" to="E30.558"/>
    <trip id="res_truck_int1112" type="res_truck_int1_truck" depart="3412.90" departLane="best" departSpeed="max" from="E31" to="E30.558"/>
    <trip id="res_truck_int1113" type="res_truck_int1_truck" depart="3427.30" departLane="best" departSpeed="max" from="E31" to="E31.622"/>
    <trip id="res_truck_int1114" type="res_truck_int1_truck" depart="3441.69" departLane="best" departSpeed="max" from="E31" to="E31.622"/>
    <trip id="res_truck_int1115" type="res_truck_int1_truck" depart="3456.08" departLane="best" departSpeed="max" from="E31" to="E18.410"/>