<?xml version="1.0" encoding="UTF-8"?>

<!-- generated on 2025-05-15 12:06:51.226972 by randomTrips.py v1_22_0+0002-63e50f52594
<configuration>
    <net-file value="osm.net.xml.gz"/>
    <output-trip-file value="osm.truck.trips.xml"/>
    <route-file value="osm.truck.rou.xml"/>
    <prefix value="truck"/>
    <trip-attributes value="departLane=&quot;best&quot;"/>
    <fringe-start-attributes value="departSpeed=&quot;max&quot;"/>
    <vehicle-class value="truck"/>
    <fringe-factor value="5"/>
    <vclass value="truck"/>
    <via-edge-types value="highway.motorway,highway.motorway_link,highway.trunk_link,highway.primary_link,highway.secondary_link,highway.tertiary_link"/>
    <min-distance value="600.0"/>
    <min-distance.fringe value="100.0"/>
    <remove-loops value="True"/>
    <validate value="True"/>
    <insertion-density value="80.0"/>
</configuration>
-->

<!-- generated on 2025-05-15 12:06:51 by Eclipse SUMO duarouter Version 1.22.0
<duarouterConfiguration xmlns:xsi="http://www.w3.org/2001/XMLSchema-instance" xsi:noNamespaceSchemaLocation="http://sumo.dlr.de/xsd/duarouterConfiguration.xsd">

    <input>
        <net-file value="osm.net.xml.gz"/>
        <route-files value="osm.truck.trips.xml"/>
    </input>

    <output>
        <output-file value="osm.truck.rou.xml"/>
        <alternatives-output value="NUL"/>
    </output>

    <processing>
        <remove-loops value="true"/>
    </processing>

    <time>
        <begin value="0.0"/>
        <end value="3600.0"/>
    </time>

    <report>
        <no-warnings value="true"/>
        <ignore-errors value="true"/>
        <no-step-log value="true"/>
    </report>

</duarouterConfiguration>
-->

<routes xmlns:xsi="http://www.w3.org/2001/XMLSchema-instance" xsi:noNamespaceSchemaLocation="http://sumo.dlr.de/xsd/routes_file.xsd">
    <vType id="truck_truck" vClass="truck"/>
    <vehicle id="truck2" type="truck_truck" depart="7.89" departLane="best" departSpeed="max">
        <route edges="695510006 295128790#1 295128790#2 295128790#5 295128790#6 295128790#7 295128790#8 295128790#9 295128790#10 693885804#1 693885804#1.60 693416739#0 693416739#0.11 693416739#1"/>
    </vehicle>
    <vehicle id="truck6" type="truck_truck" depart="23.66" departLane="best" departSpeed="max">
        <route edges="-404718839 689583179#2 689583179#4 302739240#0 302739240#1 302739240#2 302739240#3 693885802#2 693885802#3 695030266 695040105#0 695040105#1 695040105#2 695040105#3 118573606#3 118573606#4 118573606#6 118573606#8 118573606#9 118573606#10 118573606#12 372467078#0"/>
    </vehicle>
    <vehicle id="truck7" type="truck_truck" depart="27.60" departLane="best" departSpeed="max">
        <route edges="-404718839 689583179#2 689583179#4 302739240#0 302739240#1 302739240#2 302739240#3 693885802#2 693885802#3 695030266 695040105#0 695040105#1 695040105#2 695040105#3 118573606#3 118573606#4 118573606#6 118573606#8 118573606#9 118573606#10 118573606#12"/>
    </vehicle>
    <vehicle id="truck10" type="truck_truck" depart="39.43" departLane="best">
        <route edges="828678749#0 828678749#1 698936203#3 295128790#5 295128790#6 295128790#7 295128790#8 295128790#9 295128790#10 693885804#1 693885804#1.60 693416739#0 693416739#0.11 693416739#1"/>
    </vehicle>
    <vehicle id="truck12" type="truck_truck" depart="47.32" departLane="best">
        <route edges="695040102#0 828678749#1 698936203#3 295128790#5 295128790#6 295128790#7 295128790#8 295128790#9 295128790#10 693885804#1 693885804#1.60 693416739#0 693416739#0.11 693416739#1"/>
    </vehicle>
    <vehicle id="truck16" type="truck_truck" depart="63.09" departLane="best" departSpeed="max">
        <route edges="689583179#0 689583179#1 689583179#2 689583179#4 302739240#0 302739240#1 302739240#2 302739240#3 693885802#2 693885802#3 695030266 695040105#0 695040105#1 695040105#2 695040105#3 118573606#3 118573606#4 118573606#6 118573606#8 118573606#9 118573606#10 118573606#12"/>
    </vehicle>
    <vehicle id="truck18" type="truck_truck" depart="70.98" departLane="best">
        <route edges="689583179#4 302739240#0 302739240#1 302739240#2 302739240#3 693885802#2 693885802#3 695030266 695040105#0 695040105#1 695040105#2 695040105#3 118573606#3 118573606#4 118573606#6 118573606#8 118573606#9 118573606#10 118573606#12 372467078#0"/>
    </vehicle>
    <vehicle id="truck20" type="truck_truck" depart="78.86" departLane="best" departSpeed="max">
        <route edges="-828678741#1 -828678741#0 118575975#3 118575975#4 118575975#5 118575975#6 295386152#1 295386152#2 295386152#3 698936203#2 698936203#3 1279915895#1 408161670#0 408161670#1 408161670#2 408161670#3 408161670#4 408161670#5 408161670#6 408161670#8 408161670#9 408161670#10 408161670#11 408161670#12 408161670#13 -372467078#1 -372467078#0"/>
    </vehicle>
    <vehicle id="truck22" type="truck_truck" depart="86.75" departLane="best" departSpeed="max">
        <route edges="-828678741#1 -828678741#0 118575975#3 118575975#4 118575975#5 118575975#6 295386152#1 295386152#2 295386152#3 698936203#2 698936203#3 695040105#0 695040105#1 695040105#2 695040105#3 118573606#3 118573606#4 118573606#6 118573606#8 118573606#9 118573606#10 118573606#12"/>
    </vehicle>
    <vehicle id="truck23" type="truck_truck" depart="90.69" departLane="best" departSpeed="max">
        <route edges="695510006 295128790#1 295128790#2 295128790#5 295128790#6 295128790#7 295128790#8 295128790#9 295128790#10 693885804#1 693885804#1.60 693416739#0 693416739#0.11"/>
    </vehicle>
    <vehicle id="truck26" type="truck_truck" depart="102.52" departLane="best">
        <route edges="-118575972#2 118575975#0 118575975#1 118575975#2 118575975#3 118575975#4 118575975#5 118575975#6 295386152#1 295386152#2 295386152#3 698936203#2 698936203#3 695040105#0 695040105#1 695040105#2 695040105#3 118573606#3 118573606#4 118573606#6 118573606#8 118573606#9 118573606#10 118573606#12 372467078#0 372467078#1"/>
    </vehicle>
    <vehicle id="truck27" type="truck_truck" depart="106.47" departLane="best">
        <route edges="689583179#2 689583179#4 302739240#0 302739240#1 302739240#2 302739240#3 693885802#2 693885802#3 695030266 695040105#0 695040105#1 695040105#2 695040105#3 118573606#3 118573606#4 118573606#6 118573606#8 118573606#9 118573606#10 118573606#12 372467078#0 372467078#1"/>
    </vehicle>
    <vehicle id="truck34" type="truck_truck" depart="134.07" departLane="best">
        <route edges="118573606#0 118573606#1 295128790#1 295128790#2 295128790#5 295128790#6 295128790#7 295128790#8 295128790#9 295128790#10 693885804#1 693885804#1.60 693416739#0 693416739#0.11 693416739#1"/>
    </vehicle>
    <vehicle id="truck38" type="truck_truck" depart="149.84" departLane="best">
        <route edges="118575975#0 118575975#1 118575975#2 118575975#3 118575975#4 118575975#5 118575975#6 295386152#1 295386152#2 295386152#3 698936203#2 698936203#3 1279915895#1 408161670#0 408161670#1 408161670#2 408161670#3 408161670#4 408161670#5 408161670#6 408161670#8 408161670#9 408161670#10 408161670#11 408161670#12 408161670#13 -372467078#1 -372467078#0"/>
    </vehicle>
    <vehicle id="truck42" type="truck_truck" depart="165.61" departLane="best" departSpeed="max">
        <route edges="695510006 295128790#1 295128790#2 295128790#5 295128790#6 295128790#7 295128790#8 295128790#9 295128790#10 693885804#1 693885804#1.60 693416739#0"/>
    </vehicle>
    <vehicle id="truck43" type="truck_truck" depart="169.56" departLane="best">
        <route edges="695040102#0 828678749#1 698936203#3 295128790#5 295128790#6 295128790#7 295128790#8 295128790#9 295128790#10 693885804#1 693885804#1.60 779462187#1.4 779462187#1.9"/>
    </vehicle>
    <vehicle id="truck47" type="truck_truck" depart="185.33" departLane="best" departSpeed="max">
        <route edges="689583179#0 689583179#1 689583179#2 689583179#4 302739240#0 302739240#1 302739240#2 302739240#3 693885802#2 693885802#3 695030266 695040105#0 695040105#1 695040105#2 695040105#3 118573606#3 118573606#4"/>
    </vehicle>
    <vehicle id="truck48" type="truck_truck" depart="189.27" departLane="best">
        <route edges="-295386152#7 -295386152#6 -295386152#4 -295386152#3 -295386152#2 -295386152#1 -118575975#6 -118575975#5 -118575975#4 -118575975#3 -118575975#2 -118575975#1 -118575975#0 118575972#1 689583179#1 689583179#2 689583179#4 E2"/>
    </vehicle>
    <vehicle id="truck50" type="truck_truck" depart="197.16" departLane="best" departSpeed="max">
        <route edges="-295386152#8 -295386152#7 -295386152#6 -295386152#4 698936203#2 698936203#3 295128790#5 295128790#6 295128790#7 295128790#8 295128790#9 295128790#10 693885804#1 693885804#1.60"/>
    </vehicle>
    <vehicle id="truck55" type="truck_truck" depart="216.88" departLane="best" departSpeed="max">
        <route edges="689583179#0 689583179#1 689583179#2 689583179#4 302739240#0 302739240#1 302739240#2 302739240#3 693885802#2 693885802#3 695030266 1279915895#1 408161670#0 408161670#1 408161670#2 408161670#3 408161670#4 408161670#5 408161670#6 408161670#8 408161670#9 408161670#10 408161670#11 408161670#12 408161670#13 -372467078#1 -372467078#0"/>
    </vehicle>
    <vehicle id="truck56" type="truck_truck" depart="220.82" departLane="best" departSpeed="max">
        <route edges="-696756023 -295386152#7 -295386152#6 -295386152#4 -295386152#3 -295386152#2 -295386152#1 -118575975#6 -118575975#5 -118575975#4 -118575975#3 -118575975#2 -118575975#1 -118575975#0 118575972#1 689583179#1 689583179#2 689583179#4 E2"/>
    </vehicle>
    <vehicle id="truck62" type="truck_truck" depart="244.48" departLane="best">
        <route edges="302739240#0 302739240#1 302739240#2 302739240#3 693885802#2 693885802#3 695030266 1279915895#1 408161670#0 408161670#1 408161670#2 408161670#3 408161670#4 408161670#5 408161670#6 408161670#8 408161670#9 408161670#10 408161670#11 408161670#12 408161670#13 -372467078#1 -372467078#0"/>
    </vehicle>
    <vehicle id="truck65" type="truck_truck" depart="256.31" departLane="best" departSpeed="max">
        <route edges="689583179#0 689583179#1 689583179#2 689583179#4 302739240#0 302739240#1 302739240#2 302739240#3 693885802#2 693885802#3 695030266 1279915895#1 408161670#0 408161670#1 408161670#2 408161670#3 408161670#4 408161670#5 408161670#6 408161670#8 408161670#9"/>
    </vehicle>
    <vehicle id="truck66" type="truck_truck" depart="260.25" departLane="best">
        <route edges="693885802#0 693885802#1 693885802#2 693885802#3 695030266 1279915895#1 408161670#0 408161670#1 408161670#2 408161670#3 408161670#4 408161670#5 408161670#6 408161670#8 408161670#9 408161670#10 408161670#11 408161670#12 408161670#13 -372467078#1 -372467078#0"/>
    </vehicle>
    <vehicle id="truck68" type="truck_truck" depart="268.14" departLane="best" departSpeed="max">
        <route edges="-696756023 -295386152#7 -295386152#6 -295386152#4 698936203#2 698936203#3 295128790#5 295128790#6 295128790#7 295128790#8 295128790#9 295128790#10 693885804#1 693885804#1.60 779462187#1.4 779462187#1.9"/>
    </vehicle>
    <vehicle id="truck73" type="truck_truck" depart="287.85" departLane="best" departSpeed="max">
        <route edges="-295386152#8 -295386152#7 -295386152#6 -295386152#4 698936203#2 698936203#3 295128790#5 295128790#6 295128790#7 295128790#8 295128790#9 295128790#10 693885804#1 693885804#1.60 693416739#0 693416739#0.11 693416739#1"/>
    </vehicle>
    <vehicle id="truck74" type="truck_truck" depart="291.80" departLane="best">
        <route edges="689583179#5 695025559 693885802#0 693885802#1 693885802#2 693885802#3 695030266 695040105#0 695040105#1 695040105#2 695040105#3 118573606#3 118573606#4 118573606#6 118573606#8 118573606#9 118573606#10 118573606#12 372467078#0"/>
    </vehicle>
    <vehicle id="truck83" type="truck_truck" depart="327.29" departLane="best" departSpeed="max">
        <route edges="695510006 295128790#1 295128790#2 295128790#5 295128790#6 295128790#7 295128790#8 295128790#9 295128790#10 693885804#1 693885804#1.60 693416739#0"/>
    </vehicle>
    <vehicle id="truck84" type="truck_truck" depart="331.23" departLane="best" departSpeed="max">
        <route edges="-295386152#8 -295386152#7 -295386152#6 -295386152#4 698936203#2 698936203#3 295128790#5 295128790#6 295128790#7 295128790#8 295128790#9 295128790#10 1096471623#0 695511482#4 35950897#2 35950897#3"/>
    </vehicle>
    <vehicle id="truck87" type="truck_truck" depart="343.06" departLane="best">
        <route edges="693885802#0 693885802#1 693885802#2 693885802#3 695030266 695040105#0 695040105#1 695040105#2 695040105#3 118573606#3 118573606#4 118573606#6 118573606#8 118573606#9 118573606#10 118573606#12"/>
    </vehicle>
    <vehicle id="truck88" type="truck_truck" depart="347.00" departLane="best" departSpeed="max">
        <route edges="-696756023 -295386152#7 -295386152#6 -295386152#4 698936203#2 698936203#3 295128790#5 295128790#6 295128790#7 295128790#8 295128790#9 295128790#10 693885804#1 693885804#1.60 693416739#0 693416739#0.11"/>
    </vehicle>
    <vehicle id="truck90" type="truck_truck" depart="354.89" departLane="best" departSpeed="max">
        <route edges="-696756023 -295386152#7 -295386152#6 -295386152#4 698936203#2 698936203#3 295128790#5 295128790#6 295128790#7 295128790#8 295128790#9 295128790#10 693885804#1 693885804#1.60 693416739#0 693416739#0.11 693416739#1"/>
    </vehicle>
    <vehicle id="truck93" type="truck_truck" depart="366.72" departLane="best">
        <route edges="828678749#0 828678749#1 698936203#3 295128790#5 295128790#6 295128790#7 295128790#8 295128790#9 295128790#10 693885804#1 693885804#1.60 693416739#0 693416739#0.11 693416739#1"/>
    </vehicle>
    <vehicle id="truck94" type="truck_truck" depart="370.66" departLane="best">
        <route edges="118573606#0 118573606#1 295128790#1 295128790#2 295128790#5 295128790#6 295128790#7 295128790#8 295128790#9 295128790#10 1096471623#0 695511482#4 35950897#2"/>
    </vehicle>
    <vehicle id="truck96" type="truck_truck" depart="378.55" departLane="best">
        <route edges="689583179#1 689583179#2 689583179#4 302739240#0 302739240#1 302739240#2 302739240#3 693885802#2 693885802#3 695030266 1279915895#1 408161670#0 408161670#1 408161670#2 408161670#3 408161670#4 408161670#5 408161670#6 408161670#8 408161670#9 408161670#10 408161670#11 408161670#12 408161670#13 -372467078#1 -372467078#0"/>
    </vehicle>
    <vehicle id="truck98" type="truck_truck" depart="386.43" departLane="best" departSpeed="max">
        <route edges="-696756023 -295386152#7 -295386152#6 -295386152#4 698936203#2 698936203#3 295128790#5 295128790#6 295128790#7 295128790#8 295128790#9 295128790#10 693885804#1 693885804#1.60 693416739#0 693416739#0.11"/>
    </vehicle>
    <vehicle id="truck99" type="truck_truck" depart="390.38" departLane="best" departSpeed="max">
        <route edges="118575972#0 118575975#0 118575975#1 118575975#2 118575975#3 118575975#4 118575975#5 118575975#6 295386152#1 295386152#2 295386152#3 698936203#2 698936203#3 1279915895#1 408161670#0 408161670#1 408161670#2 408161670#3 408161670#4 408161670#5 408161670#6 408161670#8 408161670#9 408161670#10 408161670#11 408161670#12 408161670#13 -372467078#1 -372467078#0"/>
    </vehicle>
    <vehicle id="truck100" type="truck_truck" depart="394.32" departLane="best">
        <route edges="-295386152#7 -295386152#6 -295386152#4 698936203#2 698936203#3 295128790#5 295128790#6 295128790#7 295128790#8 295128790#9 295128790#10 693885804#1 693885804#1.60"/>
    </vehicle>
    <vehicle id="truck103" type="truck_truck" depart="406.15" departLane="best" departSpeed="max">
        <route edges="118575972#0 118575975#0 118575975#1 118575975#2 118575975#3 118575975#4 118575975#5 118575975#6 295386152#1 295386152#2 295386152#3 698936203#2 698936203#3 695040105#0 695040105#1 695040105#2 695040105#3 118573606#3 118573606#4 118573606#6 118573606#8 118573606#9 118573606#10 118573606#12"/>
    </vehicle>
    <vehicle id="truck107" type="truck_truck" depart="421.92" departLane="best" departSpeed="max">
        <route edges="-404718839 689583179#2 689583179#4 302739240#0 302739240#1 302739240#2 302739240#3 693885802#2 693885802#3 695030266 1279915895#1 408161670#0 408161670#1 408161670#2 408161670#3 408161670#4 408161670#5 408161670#6 408161670#8 408161670#9 408161670#10 408161670#11 408161670#12 408161670#13 -372467078#1 -372467078#0"/>
    </vehicle>
    <vehicle id="truck108" type="truck_truck" depart="425.87" departLane="best">
        <route edges="693885802#0 693885802#1 693885802#2 693885802#3 695030266 1279915895#1 408161670#0 408161670#1 408161670#2 408161670#3 408161670#4 408161670#5 408161670#6 408161670#8 408161670#9 408161670#10 408161670#11 408161670#12 408161670#13 -372467078#1 -372467078#0"/>
    </vehicle>
    <vehicle id="truck112" type="truck_truck" depart="441.64" departLane="best" departSpeed="max">
        <route edges="-295386152#8 -295386152#7 -295386152#6 -295386152#4 698936203#2 698936203#3 295128790#5 295128790#6 295128790#7 295128790#8 295128790#9 295128790#10 693885804#1 693885804#1.60"/>
    </vehicle>
    <vehicle id="truck113" type="truck_truck" depart="445.58" departLane="best">
        <route edges="295128790#2 295128790#5 295128790#6 295128790#7 295128790#8 295128790#9 295128790#10 693885804#1 693885804#1.60 779462187#1.4 779462187#1.9"/>
    </vehicle>
    <vehicle id="truck115" type="truck_truck" depart="453.47" departLane="best">
        <route edges="693885802#0 693885802#1 693885802#2 693885802#3 695030266 1279915895#1 408161670#0 408161670#1 408161670#2 408161670#3 408161670#4 408161670#5 408161670#6 408161670#8 408161670#9 408161670#10 408161670#11 408161670#12 408161670#13 -372467078#1 -372467078#0"/>
    </vehicle>
    <vehicle id="truck124" type="truck_truck" depart="488.96" departLane="best">
        <route edges="118573606#0 118573606#1 295128790#1 295128790#2 295128790#5 295128790#6 295128790#7 295128790#8 295128790#9 295128790#10 1096471623#0 695511482#4 35950897#2 35950897#3"/>
    </vehicle>
    <vehicle id="truck125" type="truck_truck" depart="492.90" departLane="best" departSpeed="max">
        <route edges="-828678743 -118575975#3 -118575975#2 -118575975#1 -118575975#0 118575972#1 689583179#1 689583179#2 689583179#4 689583179#5 693885804#1 693885804#1.60 779462187#1.4 779462187#1.9"/>
    </vehicle>
    <vehicle id="truck130" type="truck_truck" depart="512.62" departLane="best" departSpeed="max">
        <route edges="-696756023 -295386152#7 -295386152#6 -295386152#4 698936203#2 698936203#3 295128790#5 295128790#6 295128790#7 295128790#8 295128790#9 295128790#10 693885804#1 E4"/>
    </vehicle>
    <vehicle id="truck131" type="truck_truck" depart="516.56" departLane="best">
        <route edges="295128790#2 295128790#5 295128790#6 295128790#7 295128790#8 295128790#9 295128790#10 693885804#1 693885804#1.60 693416739#0 693416739#0.11 693416739#1"/>
    </vehicle>
    <vehicle id="truck132" type="truck_truck" depart="520.50" departLane="best" departSpeed="max">
        <route edges="695510006 295128790#1 295128790#2 295128790#5 295128790#6 295128790#7 295128790#8 295128790#9 295128790#10 1096471623#0"/>
    </vehicle>
    <vehicle id="truck133" type="truck_truck" depart="524.45" departLane="best">
        <route edges="695040102#0 828678749#1 698936203#3 295128790#5 295128790#6 295128790#7 295128790#8 295128790#9 295128790#10 693885804#1 693885804#1.60 779462187#1.4 779462187#1.9"/>
    </vehicle>
    <vehicle id="truck135" type="truck_truck" depart="532.33" departLane="best" departSpeed="max">
        <route edges="-696756023 -295386152#7 -295386152#6 -295386152#4 698936203#2 698936203#3 295128790#5 295128790#6 295128790#7 295128790#8 295128790#9 295128790#10 693885804#1 693885804#1.60 779462187#1.4 779462187#1.9"/>
    </vehicle>
    <vehicle id="truck137" type="truck_truck" depart="540.22" departLane="best" departSpeed="max">
        <route edges="-828678741#1 -828678741#0 118575975#3 118575975#4 118575975#5 118575975#6 295386152#1 295386152#2 295386152#3 698936203#2 698936203#3 1279915895#1 408161670#0 408161670#1 408161670#2 408161670#3 408161670#4 408161670#5 408161670#6 408161670#8 408161670#9 408161670#10 408161670#11 408161670#12 408161670#13 -372467078#1 -372467078#0"/>
    </vehicle>
    <vehicle id="truck140" type="truck_truck" depart="552.05" departLane="best" departSpeed="max">
        <route edges="-696756023 -295386152#7 -295386152#6 -295386152#4 698936203#2 698936203#3 295128790#5 295128790#6 295128790#7 295128790#8 295128790#9 295128790#10 693885804#1 E4"/>
    </vehicle>
    <vehicle id="truck142" type="truck_truck" depart="559.94" departLane="best" departSpeed="max">
        <route edges="-404718839 689583179#2 689583179#4 302739240#0 302739240#1 302739240#2 302739240#3 693885802#2 693885802#3 295386152#0 -118575975#6 -828678745#1 -828678745#0"/>
    </vehicle>
    <vehicle id="truck147" type="truck_truck" depart="579.65" departLane="best" departSpeed="max">
        <route edges="118575972#0 118575975#0 118575975#1 118575975#2 828678741#0 828678740 302739240#2 695027208"/>
    </vehicle>
    <vehicle id="truck152" type="truck_truck" depart="599.37" departLane="best">
        <route edges="689583179#4 302739240#0 302739240#1 302739240#2 302739240#3 693885802#2 693885802#3 695030266 1279915895#1 408161670#0 408161670#1 408161670#2 408161670#3 408161670#4 408161670#5 408161670#6 408161670#8 408161670#9 408161670#10 408161670#11 408161670#12 408161670#13 -372467078#1 -372467078#0"/>
    </vehicle>
    <vehicle id="truck155" type="truck_truck" depart="611.20" departLane="best">
        <route edges="689583179#5 695025559 693885802#0 693885802#1 693885802#2 693885802#3 695030266 1279915895#1 408161670#0 408161670#1 408161670#2 408161670#3 408161670#4 408161670#5 408161670#6 408161670#8 408161670#9 408161670#10 408161670#11 408161670#12 408161670#13 -372467078#1 -372467078#0"/>
    </vehicle>
    <vehicle id="truck159" type="truck_truck" depart="626.97" departLane="best" departSpeed="max">
        <route edges="698936203#0 698936203#1 698936203#2 698936203#3 295128790#5 295128790#6 295128790#7 295128790#8 295128790#9 295128790#10 1096471623#0 695511482#4 35950897#2 35950897#3"/>
    </vehicle>
    <vehicle id="truck164" type="truck_truck" depart="646.69" departLane="best">
        <route edges="828678749#0 828678749#1 698936203#3 295128790#5 295128790#6 295128790#7 295128790#8 295128790#9 295128790#10 1096471623#0 695511482#4 35950897#2 35950897#3"/>
    </vehicle>
    <vehicle id="truck167" type="truck_truck" depart="658.52" departLane="best" departSpeed="max">
        <route edges="689583179#0 689583179#1 689583179#2 689583179#4 302739240#0 302739240#1 302739240#2 302739240#3 693885802#2 693885802#3 695030266 695040105#0 695040105#1 695040105#2 695040105#3 118573606#3 118573606#4 118573606#6 118573606#8"/>
    </vehicle>
    <vehicle id="truck168" type="truck_truck" depart="662.46" departLane="best">
        <route edges="689583179#1 689583179#2 689583179#4 302739240#0 302739240#1 302739240#2 302739240#3 693885802#2 693885802#3 695030266 1279915895#1 408161670#0 408161670#1 408161670#2 408161670#3 408161670#4 408161670#5 408161670#6 408161670#8 408161670#9 408161670#10 408161670#11 408161670#12 408161670#13 -372467078#1 -372467078#0"/>
    </vehicle>
    <vehicle id="truck169" type="truck_truck" depart="666.40" departLane="best">
        <route edges="-295386152#7 -295386152#6 -295386152#4 698936203#2 698936203#3 295128790#5 295128790#6 295128790#7 295128790#8 295128790#9 295128790#10 693885804#1 693885804#1.60 693416739#0 693416739#0.11 693416739#1"/>
    </vehicle>
    <vehicle id="truck170" type="truck_truck" depart="670.35" departLane="best" departSpeed="max">
        <route edges="-295386152#8 -295386152#7 -295386152#6 -295386152#4 698936203#2 698936203#3 295128790#5 295128790#6 295128790#7 295128790#8 295128790#9 295128790#10 693885804#1 693885804#1.60 693416739#0 693416739#0.11 693416739#1"/>
    </vehicle>
    <vehicle id="truck174" type="truck_truck" depart="686.12" departLane="best" departSpeed="max">
        <route edges="-828678742 118575975#1 118575975#2 118575975#3 118575975#4 118575975#5 118575975#6 295386152#1 295386152#2 295386152#3 698936203#2 698936203#3 695040105#0 695040105#1 695040105#2 695040105#3 118573606#3 118573606#4 118573606#6 118573606#8 118573606#9 118573606#10 118573606#12"/>
    </vehicle>
    <vehicle id="truck175" type="truck_truck" depart="690.06" departLane="best" departSpeed="max">
        <route edges="-404718839 689583179#2 689583179#4 302739240#0 302739240#1 302739240#2 302739240#3 693885802#2 693885802#3 695030266 695040105#0 695040105#1 695040105#2 695040105#3 118573606#3 118573606#4 118573606#6 118573606#8 118573606#9"/>
    </vehicle>
    <vehicle id="truck179" type="truck_truck" depart="705.83" departLane="best">
        <route edges="-295386152#6 -295386152#4 698936203#2 698936203#3 295128790#5 295128790#6 295128790#7 295128790#8 295128790#9 295128790#10 693885804#1 693885804#1.60 779462187#1.4 779462187#1.9"/>
    </vehicle>
    <vehicle id="truck180" type="truck_truck" depart="709.78" departLane="best" departSpeed="max">
        <route edges="695510006 295128790#1 295128790#2 295128790#5 295128790#6 295128790#7 295128790#8 295128790#9 295128790#10 693885804#1 693885804#1.60 693416739#0 693416739#0.11 693416739#1"/>
    </vehicle>
    <vehicle id="truck183" type="truck_truck" depart="721.61" departLane="best">
        <route edges="689583179#1 689583179#2 689583179#4 302739240#0 302739240#1 302739240#2 302739240#3 693885802#2 693885802#3 695030266 1279915895#1 408161670#0 408161670#1 408161670#2 408161670#3 408161670#4 408161670#5 408161670#6 408161670#8 408161670#9 408161670#10 408161670#11 408161670#12"/>
    </vehicle>
    <vehicle id="truck187" type="truck_truck" depart="737.38" departLane="best" departSpeed="max">
        <route edges="-295386152#8 -295386152#7 -295386152#6 -295386152#4 698936203#2 698936203#3 295128790#5 295128790#6 295128790#7 295128790#8 295128790#9 295128790#10 693885804#1 693885804#1.60"/>
    </vehicle>
    <vehicle id="truck189" type="truck_truck" depart="745.27" departLane="best" departSpeed="max">
        <route edges="695510006 295128790#1 295128790#2 295128790#5 295128790#6 295128790#7 295128790#8 295128790#9 295128790#10 1096471623#0"/>
    </vehicle>
    <vehicle id="truck190" type="truck_truck" depart="749.21" departLane="best" departSpeed="max">
        <route edges="698936203#0 698936203#1 698936203#2 698936203#3 295128790#5 295128790#6 295128790#7 295128790#8 295128790#9 295128790#10 1096471623#0 695511482#4 35950897#2 35950897#3"/>
    </vehicle>
    <vehicle id="truck192" type="truck_truck" depart="757.10" departLane="best" departSpeed="max">
        <route edges="-404718839 689583179#2 689583179#4 302739240#0 302739240#1 302739240#2 302739240#3 693885802#2 693885802#3 695030266 1279915895#1 408161670#0 408161670#1 408161670#2 408161670#3 408161670#4 408161670#5 408161670#6 408161670#8 408161670#9 408161670#10 408161670#11 408161670#12 408161670#13 -372467078#1 -372467078#0"/>
    </vehicle>
    <vehicle id="truck194" type="truck_truck" depart="764.98" departLane="best">
        <route edges="689583179#2 689583179#4 302739240#0 302739240#1 302739240#2 302739240#3 693885802#2 693885802#3 695030266 695040105#0 695040105#1 695040105#2 695040105#3 118573606#3 118573606#4 118573606#6 118573606#8 118573606#9 118573606#10 118573606#12 372467078#0 372467078#1"/>
    </vehicle>
    <vehicle id="truck197" type="truck_truck" depart="776.81" departLane="best">
        <route edges="302739240#0 302739240#1 302739240#2 302739240#3 693885802#2 693885802#3 695030266 695040105#0 695040105#1 695040105#2 695040105#3 118573606#3 118573606#4 118573606#6 118573606#8"/>
    </vehicle>
    <vehicle id="truck200" type="truck_truck" depart="788.64" departLane="best" departSpeed="max">
        <route edges="118575972#0 118575975#0 118575975#1 118575975#2 118575975#3 118575975#4 118575975#5 118575975#6 295386152#1 295386152#2 295386152#3 698936203#2 698936203#3 1279915895#1 408161670#0 408161670#1 408161670#2 408161670#3 408161670#4 408161670#5 408161670#6 408161670#8 408161670#9 408161670#10 408161670#11 408161670#12 408161670#13 -372467078#1 -372467078#0"/>
    </vehicle>
    <vehicle id="truck202" type="truck_truck" depart="796.53" departLane="best" departSpeed="max">
        <route edges="-295386152#8 -295386152#7 -295386152#6 -295386152#4 698936203#2 698936203#3 295128790#5 295128790#6 295128790#7 295128790#8 295128790#9 295128790#10 693885804#1 693885804#1.60 693416739#0 693416739#0.11"/>
    </vehicle>
    <vehicle id="truck206" type="truck_truck" depart="812.30" departLane="best">
        <route edges="-295386152#6 -295386152#4 698936203#2 698936203#3 295128790#5 295128790#6 295128790#7 295128790#8 295128790#9 295128790#10 693885804#1 693885804#1.60 779462187#1.4 779462187#1.9"/>
    </vehicle>
    <vehicle id="truck207" type="truck_truck" depart="816.24" departLane="best">
        <route edges="-118575972#2 118575975#0 118575975#1 118575975#2 118575975#3 118575975#4 118575975#5 118575975#6 295386152#1 295386152#2 295386152#3 698936203#2 698936203#3 695040105#0 695040105#1 695040105#2 695040105#3 118573606#3 118573606#4 118573606#6 118573606#8 118573606#9 118573606#10"/>
    </vehicle>
    <vehicle id="truck213" type="truck_truck" depart="839.90" departLane="best" departSpeed="max">
        <route edges="-828678741#1 -828678741#0 118575975#3 118575975#4 118575975#5 118575975#6 295386152#1 295386152#2 295386152#3 698936203#2 698936203#3 1279915895#1 408161670#0 408161670#1 408161670#2 408161670#3 408161670#4 408161670#5 408161670#6 408161670#8 408161670#9 408161670#10 408161670#11 408161670#12 408161670#13 -372467078#1 -372467078#0"/>
    </vehicle>
    <vehicle id="truck214" type="truck_truck" depart="843.85" departLane="best" departSpeed="max">