<?xml version="1.0" encoding="UTF-8"?>

<!-- generated on 2025-05-15 12:06:48.359657 by randomTrips.py v1_22_0+0002-63e50f52594
<configuration>
    <net-file value="osm.net.xml.gz"/>
    <output-trip-file value="osm.bicycle.trips.xml"/>
    <route-file value="osm.bicycle.rou.xml"/>
    <prefix value="bike"/>
    <trip-attributes value="departLane=&quot;best&quot;"/>
    <fringe-start-attributes value="departSpeed=&quot;max&quot;"/>
    <vehicle-class value="bicycle"/>
    <fringe-factor value="2"/>
    <vclass value="bicycle"/>
    <via-edge-types value="highway.motorway,highway.motorway_link,highway.trunk_link,highway.primary_link,highway.secondary_link,highway.tertiary_link"/>
    <max-distance value="8000.0"/>
    <remove-loops value="True"/>
    <validate value="True"/>
    <insertion-density value="60.0"/>
</configuration>
-->

<!-- generated on 2025-05-15 12:06:48 by Eclipse SUMO duarouter Version 1.22.0
<duarouterConfiguration xmlns:xsi="http://www.w3.org/2001/XMLSchema-instance" xsi:noNamespaceSchemaLocation="http://sumo.dlr.de/xsd/duarouterConfiguration.xsd">

    <input>
        <net-file value="osm.net.xml.gz"/>
        <route-files value="osm.bicycle.trips.xml"/>
    </input>

    <output>
        <output-file value="osm.bicycle.rou.xml"/>
        <alternatives-output value="NUL"/>
    </output>

    <processing>
        <remove-loops value="true"/>
    </processing>

    <time>
        <begin value="0.0"/>
        <end value="3600.0"/>
    </time>

    <report>
        <no-warnings value="true"/>
        <ignore-errors value="true"/>
        <no-step-log value="true"/>
    </report>

</duarouterConfiguration>
-->

<routes xmlns:xsi="http://www.w3.org/2001/XMLSchema-instance" xsi:noNamespaceSchemaLocation="http://sumo.dlr.de/xsd/routes_file.xsd">
    <vType id="bike_bicycle" vClass="bicycle"/>
    <vehicle id="bike3" type="bike_bicycle" depart="11.20" departLane="best" departSpeed="max">
        <route edges="698936203#0 698936203#1 698936203#2 698936203#3 1279915895#1 408161670#0 408161670#1 408161670#2 408161670#3 408161670#4 408161670#5 408161670#6 408161670#8 408161670#9 408161670#10 408161670#11 408161670#12 408161670#13 -372467078#1 -372467078#0"/>
    </vehicle>
    <vehicle id="bike5" type="bike_bicycle" depart="18.67" departLane="best">
        <route edges="695040107#2 695040107#3 295128790#2 1279915895#1 408161670#0"/>
    </vehicle>
    <vehicle id="bike6" type="bike_bicycle" depart="22.40" departLane="best">
        <route edges="-118575975#6 -118575975#5 -118575975#4 -118575975#3 -118575975#2 -118575975#1 -118575975#0 118575972#1 689583179#1 689583179#2 689583179#4 689583179#5 693885803#0 693885803#2 693885803#3 693885803#5 693885803#6 695673446#0"/>
    </vehicle>
    <vehicle id="bike7" type="bike_bicycle" depart="26.14" departLane="best">
        <route edges="408161670#4 408161670#5 408161670#6 408161670#8"/>
    </vehicle>
    <vehicle id="bike10" type="bike_bicycle" depart="37.34" departLane="best">
        <route edges="695030266 695040105#0 695040105#1 695040105#2 695040102#0 695040102#1 -295386152#4 -295386152#3 -295386152#2 -295386152#1 -118575975#6 -118575975#5 -118575975#4 -118575975#3 828678741#0 828678740 302739240#2 302739240#3 693885802#2 695027207"/>
    </vehicle>
    <vehicle id="bike11" type="bike_bicycle" depart="41.07" departLane="best" departSpeed="max">
        <route edges="-828678748 295386152#2 295386152#3 295386152#4 -695040102#1"/>
    </vehicle>
    <vehicle id="bike12" type="bike_bicycle" depart="44.80" departLane="best">
        <route edges="828678899 408161670#3 408161670#4 408161670#5 408161670#6 408161670#8 408161670#9 408161670#10 408161670#11 408161670#12 1192334146#0"/>
    </vehicle>
    <vehicle id="bike13" type="bike_bicycle" depart="48.54" departLane="best">
        <route edges="-372468201#1 -372468201#0"/>
    </vehicle>
    <vehicle id="bike14" type="bike_bicycle" depart="52.27" departLane="best">
        <route edges="695040107#2 695040107#3 295128790#2 295128790#5 295128790#6 295128790#7 295128790#8 295128790#9 295128790#10 693885804#1 693885804#1.60 693416739#0"/>
    </vehicle>
    <vehicle id="bike15" type="bike_bicycle" depart="56.01" departLane="best">
        <route edges="695030266 695040105#0"/>
    </vehicle>
    <vehicle id="bike16" type="bike_bicycle" depart="59.74" departLane="best">
        <route edges="295386152#2 295386152#3 698936203#2 698936203#3 1279915895#1 408161670#0 408161670#1 408161670#2 408161670#3 408161670#4 408161670#5 408161670#6 408161670#8 408161670#9 408161670#10 408161670#11 -828678898 931369479#1"/>
    </vehicle>
    <vehicle id="bike18" type="bike_bicycle" depart="67.21" departLane="best">
        <route edges="695040105#1 695040105#2 695040102#0 695040102#1 -295386152#4 -295386152#3 -295386152#2 -295386152#1 -118575975#6 -118575975#5 -118575975#4 -118575975#3 -118575975#2 -118575975#1 -118575975#0 118575972#1 689583179#1 689583179#2 689583179#4 689583179#5 695025559 693885802#0"/>
    </vehicle>
    <vehicle id="bike19" type="bike_bicycle" depart="70.94" departLane="best" departSpeed="max">
        <route edges="695510006 118573606#3 118573606#4 118573606#6 642035208#0 642035208#1"/>
    </vehicle>
    <vehicle id="bike20" type="bike_bicycle" depart="74.67" departLane="best" departSpeed="max">
        <route edges="689583179#0 689583179#1 689583179#2 689583179#4 302739240#0 302739240#1 -1255581684"/>
    </vehicle>
    <vehicle id="bike22" type="bike_bicycle" depart="82.14" departLane="best">
        <route edges="-295386175#1 -295386175#0 693885803#5 693885803#6 693885803#8 -828678850#1 -828678854#2"/>
    </vehicle>
    <vehicle id="bike24" type="bike_bicycle" depart="89.61" departLane="best">
        <route edges="408161670#12 408161670#13 -372467078#1 931369479#0 931369479#1 931369479#2 931369479#3 695040107#0 695040107#1 695040107#2 695040107#3 295128790#2 295128790#5 295128790#6 295128790#7"/>
    </vehicle>
    <vehicle id="bike26" type="bike_bicycle" depart="97.08" departLane="best" departSpeed="max">
        <route edges="-695691453 408161670#5 408161670#6 -642035207#1 -642035207#0 -931369478 118573606#6 118573606#8 118573606#9 118573606#10 828678895"/>
    </vehicle>
    <vehicle id="bike27" type="bike_bicycle" depart="100.81" departLane="best">
        <route edges="408161670#3 408161670#4 408161670#5 408161670#6 -642035207#1 -642035207#0 695040107#0 695040107#1 695040107#2 695040107#3 295128790#2 295128790#5 295128790#6 295128790#7 295128790#8 295128790#9 295128790#10 693885804#1 693885804#1.60 693416739#0 693416739#0.11 693416739#1"/>
    </vehicle>
    <vehicle id="bike32" type="bike_bicycle" depart="119.48" departLane="best">
        <route edges="695040107#1 828678899 408161670#3 408161670#4 408161670#5 695691448"/>
    </vehicle>
    <vehicle id="bike34" type="bike_bicycle" depart="126.95" departLane="best">
        <route edges="-118575975#5 -118575975#4 -118575975#3 -118575975#2 -118575975#1 -118575975#0 118575972#1 689583179#1 689583179#2 689583179#4 689583179#5 1096471623#0"/>
    </vehicle>
    <vehicle id="bike35" type="bike_bicycle" depart="130.68" departLane="best">
        <route edges="-695040107#0 -931369478 118573606#6 118573606#8 828678896"/>
    </vehicle>
    <vehicle id="bike36" type="bike_bicycle" depart="134.41" departLane="best" departSpeed="max">
        <route edges="695512891 689583179#4 302739240#0 302739240#1 -1255581684 -828678741#0 -118575975#2"/>
    </vehicle>
    <vehicle id="bike38" type="bike_bicycle" depart="141.88" departLane="best">
        <route edges="-828678741#0 -118575975#2 -118575975#1 -118575975#0 118575972#1 689583179#1 689583179#2 689583179#4 689583179#5 693885803#0 693885803#2 693885803#3 295386175#0 295386175#1 -372468201#2 -372468201#1"/>
    </vehicle>
    <vehicle id="bike39" type="bike_bicycle" depart="145.61" departLane="best" departSpeed="max">
        <route edges="-695691452 408161670#9 -642035208#1 931369479#3 695040107#0 695040107#1 695040107#2 -828678900"/>
    </vehicle>
    <vehicle id="bike46" type="bike_bicycle" depart="171.75" departLane="best">
        <route edges="694830397 694830397.22 695025562#1 695025559 693885802#0 693885802#1 693885802#2 693885802#3 295386152#0 -118575975#6 -118575975#5 -118575975#4 -118575975#3 -118575975#2 -118575975#1 -118575975#0 118575972#1 689583179#1 689583179#2 689583179#4 302739240#0 302739240#1"/>
    </vehicle>
    <vehicle id="bike47" type="bike_bicycle" depart="175.48" departLane="best">
        <route edges="-295386152#7 -295386152#6 -295386152#4 -295386152#3 -295386152#2"/>
    </vehicle>
    <vehicle id="bike50" type="bike_bicycle" depart="186.69" departLane="best">
        <route edges="118575975#2 118575975#3 118575975#4 118575975#5 118575975#6 295386152#1 295386152#2 295386152#3 698936203#2 698936203#3 695040105#0 695040105#1 695040103"/>
    </vehicle>
    <vehicle id="bike51" type="bike_bicycle" depart="190.42" departLane="best" departSpeed="max">
        <route edges="641423230 118575975#2 118575975#3 118575975#4 118575975#5 118575975#6 295386152#1 295386152#2 295386152#3 698936203#2 698936203#3 1279915895#1 408161670#0 408161670#1 408161670#2 408161670#3 408161670#4 408161670#5"/>
    </vehicle>
    <vehicle id="bike52" type="bike_bicycle" depart="194.15" departLane="best" departSpeed="max">
        <route edges="-695691453 408161670#5 408161670#6 -642035207#1 -642035207#0 695040107#0 695040107#1 695040107#2 695040107#3 295128790#2 295128790#5 295128790#6 295128790#7 -372469388#1 828678845 693885803#2"/>
    </vehicle>
    <vehicle id="bike53" type="bike_bicycle" depart="197.89" departLane="best">
        <route edges="-372469388#1 -372469388#0 693885803#3 295386175#0 295386175#1 295386175#2 35950897#2"/>
    </vehicle>
    <vehicle id="bike54" type="bike_bicycle" depart="201.62" departLane="best" departSpeed="max">
        <route edges="118575972#0 118575975#0 118575975#1 118575975#2 118575975#3 118575975#4 118575975#5 118575975#6 295386152#1 295386152#2 295386152#3 698936203#2 698936203#3 1279915895#1 408161670#0 408161670#1 408161670#2 408161670#3 408161670#4 408161670#5 408161670#6 408161670#8 408161670#9 408161670#10 408161670#11 -828678898"/>
    </vehicle>
    <vehicle id="bike55" type="bike_bicycle" depart="205.35" departLane="best" departSpeed="max">
        <route edges="695512891 689583179#4 302739240#0 302739240#1 302739240#2 302739240#3 693885802#2 693885802#3 695030266 1279915895#1 408161670#0 408161670#1 408161670#2 695691450 -695040107#1 -695040107#0 -931369479#3"/>
    </vehicle>
    <vehicle id="bike56" type="bike_bicycle" depart="209.09" departLane="best">
        <route edges="295128790#1 295128790#2 295128790#5 295128790#6 295128790#7 -372469388#1 -372469388#0 693885803#3 295386175#0 295386175#1 -372468201#2 -372468201#1 -372468201#0 -695511483"/>
    </vehicle>
    <vehicle id="bike57" type="bike_bicycle" depart="212.82" departLane="best">
        <route edges="-828678741#0 -118575975#2 -118575975#1 828678742"/>
    </vehicle>
    <vehicle id="bike58" type="bike_bicycle" depart="216.56" departLane="best" departSpeed="max">
        <route edges="-828678741#1 -828678741#0 -118575975#2 -118575975#1 -118575975#0 118575972#1 689583179#1 689583179#2 689583179#4 689583179#5 693885803#0 693885803#2"/>
    </vehicle>
    <vehicle id="bike61" type="bike_bicycle" depart="227.76" departLane="best">
        <route edges="694829084#1 E0 695025562#1 695025559 693885802#0 693885802#1 693885802#2 693885802#3 695030266 1279915895#1 408161670#0 408161670#1 408161670#2 408161670#3"/>
    </vehicle>
    <vehicle id="bike62" type="bike_bicycle" depart="231.49" departLane="best">
        <route edges="-118575972#2 118575975#0 118575975#1 118575975#2 118575975#3 118575975#4"/>
    </vehicle>
    <vehicle id="bike63" type="bike_bicycle" depart="235.22" departLane="best">
        <route edges="-118575975#4 -118575975#3 -118575975#2 -118575975#1 -118575975#0 118575972#1 689583179#1 689583179#2 689583179#4 689583179#5 693885803#0 693885803#2 693885803#3 693885803#5 693885803#6 695673446#0 828678854#2 828678850#1"/>
    </vehicle>
    <vehicle id="bike65" type="bike_bicycle" depart="242.69" departLane="best" departSpeed="max">
        <route edges="-828678743 118575975#4 118575975#5 118575975#6 295386152#1 295386152#2"/>
    </vehicle>
    <vehicle id="bike66" type="bike_bicycle" depart="246.43" departLane="best" departSpeed="max">
        <route edges="695512891 689583179#4 302739240#0 302739240#1 302739240#2 302739240#3 693885802#2 693885802#3 695030266 1279915895#1 408161670#0 408161670#1 408161670#2 408161670#3 408161670#4 408161670#5 408161670#6 -642035207#1 -642035207#0 -931369478 118573606#6 118573606#8 828678896"/>
    </vehicle>
    <vehicle id="bike67" type="bike_bicycle" depart="250.16" departLane="best">
        <route edges="-372467078#1 931369479#0 931369479#1 931369479#2 931369479#3 695040107#0 695040107#1 695040107#2 695040107#3 295128790#2 295128790#5 295128790#6 295128790#7 -372469388#1 -372469388#0 693885803#3 372469389#0"/>
    </vehicle>
    <vehicle id="bike68" type="bike_bicycle" depart="253.89" departLane="best" departSpeed="max">
        <route edges="-295386152#8 -295386152#7 -295386152#6 -295386152#4 698936203#2 698936203#3 295128790#5 295128790#6 295128790#7 295128790#8 295128790#9 295128790#10 1096471623#0 695511482#4"/>
    </vehicle>
    <vehicle id="bike70" type="bike_bicycle" depart="261.36" departLane="best">
        <route edges="118575975#3 118575975#4 118575975#5 118575975#6 295386152#1 295386152#2 295386152#3 698936203#2 698936203#3 1279915895#1 408161670#0 408161670#1 408161670#2 408161670#3 408161670#4 408161670#5 408161670#6 408161670#8 408161670#9"/>
    </vehicle>
    <vehicle id="bike73" type="bike_bicycle" depart="272.56" departLane="best">
        <route edges="295386152#3 698936203#2 698936203#3 695040105#0"/>
    </vehicle>
    <vehicle id="bike74" type="bike_bicycle" depart="276.30" departLane="best">
        <route edges="695040102#1 -295386152#4 -295386152#3 -295386152#2 -295386152#1 -118575975#6 -118575975#5 -118575975#4 -118575975#3 -118575975#2 -118575975#1"/>
    </vehicle>
    <vehicle id="bike76" type="bike_bicycle" depart="283.76" departLane="best">
        <route edges="118573606#4 118573606#6 642035208#0 642035208#1 408161670#10 408161670#11 408161670#12"/>
    </vehicle>
    <vehicle id="bike78" type="bike_bicycle" depart="291.23" departLane="best" departSpeed="max">
        <route edges="-828678748 -295386152#1 -118575975#6 -118575975#5 -118575975#4 -118575975#3 -118575975#2 -118575975#1 -118575975#0 118575972#1 689583179#1"/>
    </vehicle>
    <vehicle id="bike80" type="bike_bicycle" depart="298.70" departLane="best" departSpeed="max">
        <route edges="-295386152#8 -295386152#7 -295386152#6 -295386152#4 698936203#2 698936203#3 295128790#5 295128790#6 295128790#7 295128790#8 295128790#9 295128790#10 693885803#0"/>
    </vehicle>
    <vehicle id="bike84" type="bike_bicycle" depart="313.63" departLane="best">
        <route edges="-695040107#1 -695040107#0 642035207#0"/>
    </vehicle>
    <vehicle id="bike85" type="bike_bicycle" depart="317.37" departLane="best">
        <route edges="828678749#1 698936203#3 1279915895#1 408161670#0 408161670#1 408161670#2 695691450 -695040107#1 -695040107#0 642035207#0 642035207#1"/>
    </vehicle>
    <vehicle id="bike86" type="bike_bicycle" depart="321.10" departLane="best">
        <route edges="118575975#3 118575975#4 118575975#5 118575975#6 295386152#1 295386152#2 295386152#3 698936203#2 698936203#3 1279915895#1 408161670#0 408161670#1 408161670#2 408161670#3 695691449"/>
    </vehicle>
    <vehicle id="bike87" type="bike_bicycle" depart="324.83" departLane="best">
        <route edges="695030266 295128790#5 295128790#6 695510004 -372469387#1 -372469387#0 693885803#6 693885803#8 693885803#9 693885803#11 -695668721#0"/>
    </vehicle>
    <vehicle id="bike89" type="bike_bicycle" depart="332.30" departLane="best">
        <route edges="118573606#1 295128790#1 295128790#2 295128790#5 295128790#6 695510004 -372469387#1 -372469387#0"/>
    </vehicle>
    <vehicle id="bike91" type="bike_bicycle" depart="339.77" departLane="best">
        <route edges="E0 695025562#1 693885803#0 693885803#2 693885803#3 295386175#0 295386175#1 -372468201#2 -372468201#1 -372468201#0"/>
    </vehicle>
    <vehicle id="bike92" type="bike_bicycle" depart="343.50" departLane="best">
        <route edges="-931369479#1 828678898 408161670#12 1192334146#0"/>
    </vehicle>
    <vehicle id="bike93" type="bike_bicycle" depart="347.24" departLane="best" departSpeed="max">
        <route edges="695510006 118573606#3 828678900 -695040107#2 -695040107#1 -695040107#0 -931369478"/>
    </vehicle>
    <vehicle id="bike94" type="bike_bicycle" depart="350.97" departLane="best" departSpeed="max">
        <route edges="-695027208 302739240#3 693885802#2 693885802#3 695030266 1279915895#1 408161670#0 408161670#1 408161670#2 408161670#3 408161670#4 408161670#5 408161670#6 408161670#8 408161670#9 408161670#10 408161670#11 -828678898 -931369479#0 372467078#1"/>
    </vehicle>
    <vehicle id="bike95" type="bike_bicycle" depart="354.70" departLane="best">
        <route edges="118573606#1 118573606#3 118573606#4 118573606#6 118573606#8 118573606#9 118573606#10"/>
    </vehicle>
    <vehicle id="bike96" type="bike_bicycle" depart="358.44" departLane="best" departSpeed="max">
        <route edges="-695691449 408161670#4 408161670#5 408161670#6 -642035207#1 -642035207#0 695040107#0 695040107#1 695040107#2 695040107#3 295128790#2 295128790#5 295128790#6 695510004 -372469387#1 -372469387#0 693885803#6 693885803#8 693885803#9 828678849"/>
    </vehicle>
    <vehicle id="bike98" type="bike_bicycle" depart="365.90" departLane="best">
        <route edges="-295386152#7 -295386152#6 -295386152#4 -295386152#3 -295386152#2 -295386152#1 -295386152#0"/>
    </vehicle>
    <vehicle id="bike100" type="bike_bicycle" depart="373.37" departLane="best">
        <route edges="931369479#0 931369479#1 931369479#2 931369479#3 695040107#0 695040107#1 695040107#2 695040107#3 295128790#2 295128790#5 295128790#6 695510004 -372469387#1 -372469387#0 693885803#6 695673446#0 828678854#2 828678850#1"/>
    </vehicle>
    <vehicle id="bike101" type="bike_bicycle" depart="377.11" departLane="best">
        <route edges="695040107#2 -695040107#2"/>
    </vehicle>
    <vehicle id="bike102" type="bike_bicycle" depart="380.84" departLane="best">
        <route edges="-118575975#6 -828678745#1 -828678745#0"/>
    </vehicle>
    <vehicle id="bike105" type="bike_bicycle" depart="392.04" departLane="best" departSpeed="max">
        <route edges="-695691452 408161670#9 -642035208#1 931369479#3 695040107#0 695040107#1 828678899 408161670#3 695691449"/>
    </vehicle>
    <vehicle id="bike106" type="bike_bicycle" depart="395.77" departLane="best" departSpeed="max">
        <route edges="118575972#0 118575972#1 689583179#1 689583179#2 689583179#4 302739240#0 302739240#1"/>
    </vehicle>
    <vehicle id="bike109" type="bike_bicycle" depart="406.98" departLane="best">
        <route edges="-642035207#0 -931369478 118573606#6 118573606#8"/>
    </vehicle>
    <vehicle id="bike110" type="bike_bicycle" depart="410.71" departLane="best">
        <route edges="931369479#0 931369479#1 931369479#2 642035208#1"/>
    </vehicle>
    <vehicle id="bike111" type="bike_bicycle" depart="414.44" departLane="best">
        <route edges="295386152#3 698936203#2 698936203#3 1279915895#1 408161670#0 408161670#1 408161670#2 695691450 -695040107#1"/>
    </vehicle>
    <vehicle id="bike112" type="bike_bicycle" depart="418.18" departLane="best">
        <route edges="-295386152#4 698936203#2 698936203#3 1279915895#1 408161670#0 408161670#1 408161670#2 408161670#3 408161670#4 408161670#5 408161670#6 408161670#8 408161670#9 408161670#10 642067357#0"/>
    </vehicle>
    <vehicle id="bike114" type="bike_bicycle" depart="425.64" departLane="best">
        <route edges="-642035207#1 -642035207#0 695040107#0 695040107#1 695040107#2 -828678900"/>
    </vehicle>
    <vehicle id="bike118" type="bike_bicycle" depart="440.58" departLane="best" departSpeed="max">
        <route edges="698936203#0 698936203#1 698936203#2 698936203#3 1279915895#1 408161670#0 408161670#1 408161670#2 695691450 695040107#2 -828678900"/>
    </vehicle>
    <vehicle id="bike120" type="bike_bicycle" depart="448.05" departLane="best">
        <route edges="118573606#0 118573606#1 118573606#3 118573606#4 118573606#6 642035208#0 642035208#1 408161670#10 642067357#0"/>
    </vehicle>
    <vehicle id="bike122" type="bike_bicycle" depart="455.51" departLane="best" departSpeed="max">
        <route edges="-695040103 695040105#2 695040102#0 695040102#1"/>
    </vehicle>
    <vehicle id="bike124" type="bike_bicycle" depart="462.98" departLane="best" departSpeed="max">
        <route edges="641397122 694829084#1 E0 695025562#1 695025559 693885802#0 693885802#1 693885802#2 693885802#3 695030266 1279915895#1 408161670#0 408161670#1 408161670#2 408161670#3 408161670#4 408161670#5 408161670#6 -642035207#1 -642035207#0 -931369478 118573606#6 118573606#8 118573606#9"/>
    </vehicle>
    <vehicle id="bike125" type="bike_bicycle" depart="466.71" departLane="best">
        <route edges="-828678744 828678745#1 118575975#6 295386152#1 295386152#2 295386152#3 698936203#2 698936203#3 1279915895#1 408161670#0 408161670#1 408161670#2 695691450 695040107#2"/>
    </vehicle>
    <vehicle id="bike126" type="bike_bicycle" depart="470.45" departLane="best" departSpeed="max">
        <route edges="-295386152#8 -295386152#7 -295386152#6 -295386152#4 698936203#2 698936203#3 295128790#5 295128790#6 295128790#7 -372469388#1 -372469388#0 693885803#3 295386175#0 295386175#1 -372468201#2 -372468201#1"/>
    </vehicle>
    <vehicle id="bike128" type="bike_bicycle" depart="477.92" departLane="best" departSpeed="max">
        <route edges="-295386152#8 -295386152#7 -295386152#6 -295386152#4 -295386152#3 -295386152#2 -295386152#1 -118575975#6 -828678745#1 -828678745#0"/>
    </vehicle>
    <vehicle id="bike129" type="bike_bicycle" depart="481.65" departLane="best" departSpeed="max">
        <route edges="-695691452 408161670#9 -642035208#1 931369479#3 695040107#0 695040107#1 695040107#2 695040107#3 295128790#2 295128790#5 295128790#6 695510004 -372469387#1 -372469387#0 693885803#6 695673446#0 828678854#2"/>
    </vehicle>
    <vehicle id="bike132" type="bike_bicycle" depart="492.85" departLane="best">
        <route edges="695040105#2 695040102#0 695040102#1 -295386152#4 -295386152#3 -295386152#2 -295386152#1 -118575975#6 -118575975#5 -118575975#4 -118575975#3 828678741#0 828678740 302739240#2 695027208"/>
    </vehicle>
    <vehicle id="bike135" type="bike_bicycle" depart="504.05" departLane="best">
        <route edges="695040102#0 -828678749#0 118573606#1 118573606#3 118573606#4 118573606#6 118573606#8 118573606#9"/>
    </vehicle>
    <vehicle id="bike136" type="bike_bicycle" depart="507.79" departLane="best">
        <route edges="408161670#8 408161670#9 -642035208#1 -931369479#2 -828678897 118573606#10 828678895"/>
    </vehicle>
    <vehicle id="bike137" type="bike_bicycle" depart="511.52" departLane="best" departSpeed="max">
        <route edges="-404718839 689583179#2 689583179#4 689583179#5 693885803#0 -828678845 -372469388#0"/>
    </vehicle>
    <vehicle id="bike139" type="bike_bicycle" depart="518.99" departLane="best" departSpeed="max">
        <route edges="-695691453 408161670#5 408161670#6 -642035207#1 -642035207#0 695040107#0 695040107#1 695040107#2 695040107#3 295128790#2 295128790#5 295128790#6 295128790#7 295128790#8 295128790#9 295128790#10 693885804#1 693885804#1.60 693416739#0"/>
    </vehicle>
    <vehicle id="bike140" type="bike_bicycle" depart="522.72" departLane="best">
        <route edges="689583179#5 695025559 693885802#0 693885802#1 693885802#2 693885802#3 295386152#0 -118575975#6 -118575975#5 -828678744"/>
    </vehicle>
    <vehicle id="bike141" type="bike_bicycle" depart="526.45" departLane="best">
        <route edges="408161670#11 -828678898 931369479#1 931369479#2 931369479#3"/>
    </vehicle>
    <vehicle id="bike142" type="bike_bicycle" depart="530.19" departLane="best" departSpeed="max">
        <route edges="1199455963 -295386152#4 -295386152#3 -295386152#2 828678748"/>
    </vehicle>
    <vehicle id="bike143" type="bike_bicycle" depart="533.92" departLane="best">
        <route edges="-695040107#2 -695040107#1 -695040107#0 642035207#0 642035207#1 408161670#8 408161670#9 408161670#10 408161670#11 408161670#12 408161670#13 -372467078#1"/>
    </vehicle>
    <vehicle id="bike144" type="bike_bicycle" depart="537.66" departLane="best">
        <route edges="118573606#1"/>
    </vehicle>
    <vehicle id="bike145" type="bike_bicycle" depart="541.39" departLane="best">
        <route edges="118575972#1 689583179#1 689583179#2 689583179#4 689583179#5 693885803#0 693885803#2 693885803#3 693885803#5 693885803#6 695673446#0"/>
    </vehicle>
    <vehicle id="bike146" type="bike_bicycle" depart="545.12" departLane="best">
        <route edges="408161670#12 408161670#13 -372467078#1 931369479#0 931369479#1 931369479#2"/>
    </vehicle>
    <vehicle id="bike147" type="bike_bicycle" depart="548.86" departLane="best">
        <route edges="693885802#3 295386152#0 -118575975#6 -118575975#5 -118575975#4 -118575975#3 -118575975#2 -118575975#1 -118575975#0 118575972#1 689583179#1 689583179#2 641423229"/>
    </vehicle>
    <vehicle id="bike150" type="bike_bicycle" depart="560.06" departLane="best">
        <route edges="698936203#3 1279915895#1 408161670#0 408161670#1 408161670#2 408161670#3 408161670#4 408161670#5 408161670#6 408161670#8"/>
    </vehicle>
    <vehicle id="bike151" type="bike_bicycle" depart="563.79" departLane="best">
        <route edges="695040105#3 118573606#3 118573606#4 118573606#6 642035208#0 642035208#1 408161670#10 642067357#0"/>
    </vehicle>
    <vehicle id="bike154" type="bike_bicycle" depart="574.99" departLane="best">
        <route edges="694830397.22 695025562#1 695025559 693885802#0 693885802#1 693885802#2 693885802#3 295386152#0 -118575975#6 -118575975#5 -118575975#4 -118575975#3 828678741#0 828678741#1"/>
    </vehicle>
    <vehicle id="bike155" type="bike_bicycle" depart="578.73" departLane="best">
        <route edges="-295386152#4 -295386152#3 -295386152#2 -295386152#1 -118575975#6 -828678745#1 -828678745#0"/>
    </vehicle>
    <vehicle id="bike156" type="bike_bicycle" depart="582.46" departLane="best" departSpeed="max">
        <route edges="-695691449 408161670#4 408161670#5 408161670#6 -642035207#1 -642035207#0 695040107#0 695040107#1 695040107#2 695040107#3 295128790#2 295128790#5 295128790#6 295128790#7 -372469388#1 -372469388#0 693885803#3 295386175#0 295386175#1 -372468201#2 -372468201#1"/>
    </vehicle>
    <vehicle id="bike157" type="bike_bicycle" depart="586.19" departLane="best">
        <route edges="694829084#1 E0 695025562#1 695025559 693885802#0 693885802#1 693885802#2 693885802#3 295386152#0 -118575975#6 -118575975#5"/>
    </vehicle>
    <vehicle id="bike159" type="bike_bicycle" depart="593.66" departLane="best">
        <route edges="-642035207#0 695040107#0 695040107#1 695040107#2 695040107#3 295128790#2 295128790#5 295128790#6 695510004 -372469387#1 -372469387#0 693885803#6 695673446#0 828678854#2 828678850#1"/>
    </vehicle>
    <vehicle id="bike162" type="bike_bicycle" depart="604.86" departLane="best">
        <route edges="118575975#5 118575975#6 295386152#1 295386152#2 295386152#3 698936203#2 698936203#3 695040105#0 695040105#1 695040105#2"/>
    </vehicle>
    <vehicle id="bike163" type="bike_bicycle" depart="608.60" departLane="best" departSpeed="max">
        <route edges="-828678747 698936203#1 698936203#2 698936203#3 295128790#5 295128790#6 695510004 -372469387#1 -372469387#0 693885803#6 695673446#0 828678854#2"/>
    </vehicle>
    <vehicle id="bike164" type="bike_bicycle" depart="612.33" departLane="best">
        <route edges="695025562#1 695025559 693885802#0 693885802#1 693885802#2 693885802#3 295386152#0 -118575975#6 -118575975#5 -118575975#4 -118575975#3 -118575975#2 -118575975#1 828678742"/>
    </vehicle>
    <vehicle id="bike165" type="bike_bicycle" depart="616.06" departLane="best" departSpeed="max">
        <route edges="695033472#2 295128790#6 295128790#7 295128790#8 295128790#9 295128790#10 1096471623#0"/>
    </vehicle>
    <vehicle id="bike166" type="bike_bicycle" depart="619.80" departLane="best" departSpeed="max">
        <route edges="694830396 694830397 694830397.22 695025562#1 693885803#0 693885803#2 693885803#3 693885803#5 372469387#0"/>
    </vehicle>
    <vehicle id="bike167" type="bike_bicycle" depart="623.53" departLane="best" departSpeed="max">
        <route edges="695512891 689583179#4 302739240#0 302739240#1 -1255581684 828678741#1"/>
    </vehicle>
    <vehicle id="bike168" type="bike_bicycle" depart="627.26" departLane="best">
        <route edges="695040107#3 295128790#2 1279915895#1 408161670#0 408161670#1 695691454#0"/>
    </vehicle>
    <vehicle id="bike169" type="bike_bicycle" depart="631.00" departLane="best">
        <route edges="118575972#1"/>
    </vehicle>
    <vehicle id="bike170" type="bike_bicycle" depart="634.73" departLane="best">
        <route edges="694830397.22 695025562#1 693885803#0 -828678845"/>
    </vehicle>
    <vehicle id="bike171" type="bike_bicycle" depart="638.47" departLane="best">
        <route edges="-118575975#5 -118575975#4 -118575975#3 -118575975#2 -118575975#1 -118575975#0 118575972#1 689583179#1 689583179#2 689583179#4 689583179#5 693885803#0 693885803#2 693885803#3 693885803#5 693885803#6 693885803#8 693885803#9 693885803#11 -695668721#0"/>
    </vehicle>
    <vehicle id="bike172" type="bike_bicycle" depart="642.20" departLane="best" departSpeed="max">
        <route edges="-828678746 -295386152#2 -295386152#1 -118575975#6 -118575975#5 -118575975#4 -118575975#3 -118575975#2 -118575975#1 828678742"/>