<?xml version="1.0" encoding="UTF-8"?>

<!-- generated on 2025-07-17 16:02:42.815573 by randomTrips.py v1_22_0+0002-63e50f52594
<configuration>
    <net-file value="osm.net.xml.gz"/>
    <output-trip-file value="osm.res_motorcycle.trips.xml"/>
    <prefix value="res_motorcycle"/>
    <trip-attributes value="departLane='best'"/>
    <fringe-start-attributes value="departSpeed='max'"/>
    <vehicle-class value="motorcycle"/>
    <vclass value="motorcycle"/>
    <remove-loops value="True"/>
    <validate value="True"/>
    <insertion-rate value="1500.0"/>
</configuration>
-->

<!-- generated on 2025-07-17 16:02:42 by Eclipse SUMO duarouter Version 1.22.0
<duarouterConfiguration xmlns:xsi="http://www.w3.org/2001/XMLSchema-instance" xsi:noNamespaceSchemaLocation="http://sumo.dlr.de/xsd/duarouterConfiguration.xsd">

    <input>
        <net-file value="osm.net.xml.gz"/>
        <route-files value="osm.res_motorcycle.trips.xml"/>
    </input>

    <output>
        <output-file value="osm.res_motorcycle.trips.xml.tmp"/>
        <alternatives-output value="NUL"/>
        <write-trips value="true"/>
    </output>

    <processing>
        <remove-loops value="true"/>
    </processing>

    <time>
        <begin value="0.0"/>
        <end value="3600.0"/>
    </time>

    <report>
        <no-warnings value="true"/>
        <ignore-errors value="true"/>
        <no-step-log value="true"/>
    </report>

</duarouterConfiguration>
-->

<routes xmlns:xsi="http://www.w3.org/2001/XMLSchema-instance" xsi:noNamespaceSchemaLocation="http://sumo.dlr.de/xsd/routes_file.xsd">
    <vType id="res_motorcycle_motorcycle" vClass="motorcycle"/>
    <trip id="res_motorcycle1" type="res_motorcycle_motorcycle" depart="2.40" departLane="best" departSpeed="max" from="E16" to="E13"/>
    <trip id="res_motorcycle3" type="res_motorcycle_motorcycle" depart="7.20" departLane="best" from="E7" to="E1"/>
    <trip id="res_motorcycle5" type="res_motorcycle_motorcycle" depart="12.00" departLane="best" departSpeed="max" from="E12" to="E20"/>
    <trip id="res_motorcycle6" type="res_motorcycle_motorcycle" depart="14.40" departLane="best" from="E0" to="E13"/>
    <trip id="res_motorcycle8" type="res_motorcycle_motorcycle" depart="19.20" departLane="best" departSpeed="max" from="E12" to="E22"/>
    <trip id="res_motorcycle11" type="res_motorcycle_motorcycle" depart="26.40" departLane="best" departSpeed="max" from="E18" to="E10"/>
    <trip id="res_motorcycle12" type="res_motorcycle_motorcycle" depart="28.80" departLane="best" departSpeed="max" from="E9" to="E15"/>
    <trip id="res_motorcycle13" type="res_motorcycle_motorcycle" depart="31.20" departLane="best" from="E1" to="E1"/>
    <trip id="res_motorcycle16" type="res_motorcycle_motorcycle" depart="38.40" departLane="best" departSpeed="max" from="E21" to="E8"/>
    <trip id="res_motorcycle17" type="res_motorcycle_motorcycle" depart="40.80" departLane="best" departSpeed="max" from="E19" to="E20"/>
    <trip id="res_motorcycle21" type="res_motorcycle_motorcycle" depart="50.40" departLane="best" departSpeed="max" from="E12" to="E14"/>
    <trip id="res_motorcycle24" type="res_motorcycle_motorcycle" depart="57.60" departLane="best" from="E3" to="E15"/>
    <trip id="res_motorcycle25" type="res_motorcycle_motorcycle" depart="60.00" departLane="best" departSpeed="max" from="E18" to="E13"/>
    <trip id="res_motorcycle29" type="res_motorcycle_motorcycle" depart="69.60" departLane="best" departSpeed="max" from="E11" to="E17"/>
    <trip id="res_motorcycle31" type="res_motorcycle_motorcycle" depart="74.40" departLane="best" departSpeed="max" from="E21" to="E3"/>
    <trip id="res_motorcycle34" type="res_motorcycle_motorcycle" depart="81.60" departLane="best" departSpeed="max" from="E18" to="E14"/>
    <trip id="res_motorcycle35" type="res_motorcycle_motorcycle" depart="84.00" departLane="best" departSpeed="max" from="E12" to="E8"/>
    <trip id="res_motorcycle36" type="res_motorcycle_motorcycle" depart="86.40" departLane="best" from="E7" to="E15"/>
    <trip id="res_motorcycle37" type="res_motorcycle_motorcycle" depart="88.80" departLane="best" from="E3" to="E17"/>
    <trip id="res_motorcycle38" type="res_motorcycle_motorcycle" depart="91.20" departLane="best" from="E7" to="E2"/>
    <trip id="res_motorcycle39" type="res_motorcycle_motorcycle" depart="93.60" departLane="best" departSpeed="max" from="E16" to="E13"/>
    <trip id="res_motorcycle40" type="res_motorcycle_motorcycle" depart="96.00" departLane="best" departSpeed="max" from="E21" to="E14"/>
    <trip id="res_motorcycle42" type="res_motorcycle_motorcycle" depart="100.80" departLane="best" departSpeed="max" from="E19" to="E13"/>
    <trip id="res_motorcycle43" type="res_motorcycle_motorcycle" depart="103.20" departLane="best" departSpeed="max" from="E9" to="E20"/>
    <trip id="res_motorcycle48" type="res_motorcycle_motorcycle" depart="115.20" departLane="best" departSpeed="max" from="E9" to="E20"/>
    <trip id="res_motorcycle49" type="res_motorcycle_motorcycle" depart="117.60" departLane="best" departSpeed="max" from="E9" to="E6"/>
    <trip id="res_motorcycle50" type="res_motorcycle_motorcycle" depart="120.00" departLane="best" from="E0" to="E4"/>
    <trip id="res_motorcycle56" type="res_motorcycle_motorcycle" depart="134.40" departLane="best" departSpeed="max" from="E21" to="E10"/>
    <trip id="res_motorcycle59" type="res_motorcycle_motorcycle" depart="141.60" departLane="best" departSpeed="max" from="E23" to="E10"/>
    <trip id="res_motorcycle60" type="res_motorcycle_motorcycle" depart="144.00" departLane="best" from="E5" to="E20"/>
    <trip id="res_motorcycle61" type="res_motorcycle_motorcycle" depart="146.40" departLane="best" from="E5" to="E20"/>
    <trip id="res_motorcycle66" type="res_motorcycle_motorcycle" depart="158.40" departLane="best" from="E7" to="E8"/>
    <trip id="res_motorcycle70" type="res_motorcycle_motorcycle" depart="168.00" departLane="best" from="E2" to="E20"/>
    <trip id="res_motorcycle71" type="res_motorcycle_motorcycle" depart="170.40" departLane="best" departSpeed="max" from="E16" to="E6"/>
    <trip id="res_motorcycle72" type="res_motorcycle_motorcycle" depart="172.80" departLane="best" departSpeed="max" from="E19" to="E13"/>
    <trip id="res_motorcycle73" type="res_motorcycle_motorcycle" depart="175.20" departLane="best" departSpeed="max" from="E21" to="E4"/>
    <trip id="res_motorcycle74" type="res_motorcycle_motorcycle" depart="177.60" departLane="best" departSpeed="max" from="E12" to="E14"/>
    <trip id="res_motorcycle76" type="res_motorcycle_motorcycle" depart="182.40" departLane="best" from="E2" to="E20"/>
    <trip id="res_motorcycle78" type="res_motorcycle_motorcycle" depart="187.20" departLane="best" departSpeed="max" from="E18" to="E22"/>
    <trip id="res_motorcycle81" type="res_motorcycle_motorcycle" depart="194.40" departLane="best" departSpeed="max" from="E12" to="E7"/>
    <trip id="res_motorcycle84" type="res_motorcycle_motorcycle" depart="201.60" departLane="best" departSpeed="max" from="E12" to="E10"/>
    <trip id="res_motorcycle85" type="res_motorcycle_motorcycle" depart="204.00" departLane="best" from="E7" to="E22"/>
    <trip id="res_motorcycle87" type="res_motorcycle_motorcycle" depart="208.80" departLane="best" from="E5" to="E13"/>
    <trip id="res_motorcycle89" type="res_motorcycle_motorcycle" depart="213.60" departLane="best" departSpeed="max" from="E19" to="E2"/>
    <trip id="res_motorcycle92" type="res_motorcycle_motorcycle" depart="220.80" departLane="best" departSpeed="max" from="E19" to="E15"/>
    <trip id="res_motorcycle93" type="res_motorcycle_motorcycle" depart="223.20" departLane="best" from="E6" to="E13"/>
    <trip id="res_motorcycle94" type="res_motorcycle_motorcycle" depart="225.60" departLane="best" departSpeed="max" from="E12" to="E2"/>
    <trip id="res_motorcycle95" type="res_motorcycle_motorcycle" depart="228.00" departLane="best" departSpeed="max" from="E19" to="E14"/>
    <trip id="res_motorcycle96" type="res_motorcycle_motorcycle" depart="230.40" departLane="best" departSpeed="max" from="E12" to="E7"/>
    <trip id="res_motorcycle99" type="res_motorcycle_motorcycle" depart="237.60" departLane="best" departSpeed="max" from="E9" to="E6"/>
    <trip id="res_motorcycle104" type="res_motorcycle_motorcycle" depart="249.60" departLane="best" departSpeed="max" from="E19" to="E8"/>
    <trip id="res_motorcycle105" type="res_motorcycle_motorcycle" depart="252.00" departLane="best" departSpeed="max" from="E16" to="E5"/>
    <trip id="res_motorcycle108" type="res_motorcycle_motorcycle" depart="259.20" departLane="best" departSpeed="max" from="E21" to="E4"/>
    <trip id="res_motorcycle109" type="res_motorcycle_motorcycle" depart="261.60" departLane="best" departSpeed="max" from="E11" to="E14"/>
    <trip id="res_motorcycle110" type="res_motorcycle_motorcycle" depart="264.00" departLane="best" departSpeed="max" from="E9" to="E22"/>
    <trip id="res_motorcycle111" type="res_motorcycle_motorcycle" depart="266.40" departLane="best" departSpeed="max" from="E21" to="E4"/>
    <trip id="res_motorcycle112" type="res_motorcycle_motorcycle" depart="268.80" departLane="best" from="E0" to="E22"/>
    <trip id="res_motorcycle113" type="res_motorcycle_motorcycle" depart="271.20" departLane="best" departSpeed="max" from="E21" to="E6"/>
    <trip id="res_motorcycle114" type="res_motorcycle_motorcycle" depart="273.60" departLane="best" departSpeed="max" from="E11" to="E8"/>
    <trip id="res_motorcycle116" type="res_motorcycle_motorcycle" depart="278.40" departLane="best" departSpeed="max" from="E23" to="E3"/>
    <trip id="res_motorcycle117" type="res_motorcycle_motorcycle" depart="280.80" departLane="best" departSpeed="max" from="E12" to="E1"/>
    <trip id="res_motorcycle119" type="res_motorcycle_motorcycle" depart="285.60" departLane="best" departSpeed="max" from="E23" to="E22"/>
    <trip id="res_motorcycle120" type="res_motorcycle_motorcycle" depart="288.00" departLane="best" departSpeed="max" from="E19" to="E22"/>
    <trip id="res_motorcycle122" type="res_motorcycle_motorcycle" depart="292.80" departLane="best" departSpeed="max" from="E12" to="E4"/>
    <trip id="res_motorcycle123" type="res_motorcycle_motorcycle" depart="295.20" departLane="best" departSpeed="max" from="E12" to="E17"/>
    <trip id="res_motorcycle124" type="res_motorcycle_motorcycle" depart="297.60" departLane="best" from="E3" to="E14"/>
    <trip id="res_motorcycle130" type="res_motorcycle_motorcycle" depart="312.00" departLane="best" from="E7" to="E7"/>
    <trip id="res_motorcycle131" type="res_motorcycle_motorcycle" depart="314.40" departLane="best" departSpeed="max" from="E18" to="E10"/>
    <trip id="res_motorcycle133" type="res_motorcycle_motorcycle" depart="319.20" departLane="best" departSpeed="max" from="E23" to="E8"/>
    <trip id="res_motorcycle135" type="res_motorcycle_motorcycle" depart="324.00" departLane="best" from="E6" to="E14"/>
    <trip id="res_motorcycle136" type="res_motorcycle_motorcycle" depart="326.40" departLane="best" from="E3" to="E8"/>
    <trip id="res_motorcycle137" type="res_motorcycle_motorcycle" depart="328.80" departLane="best" departSpeed="max" from="E11" to="E1"/>
    <trip id="res_motorcycle139" type="res_motorcycle_motorcycle" depart="333.60" departLane="best" departSpeed="max" from="E16" to="E22"/>
    <trip id="res_motorcycle141" type="res_motorcycle_motorcycle" depart="338.40" departLane="best" from="E3" to="E14"/>
    <trip id="res_motorcycle144" type="res_motorcycle_motorcycle" depart="345.60" departLane="best" departSpeed="max" from="E19" to="E14"/>
    <trip id="res_motorcycle146" type="res_motorcycle_motorcycle" depart="350.40" departLane="best" from="E3" to="E14"/>
    <trip id="res_motorcycle150" type="res_motorcycle_motorcycle" depart="360.00" departLane="best" from="E7" to="E20"/>
    <trip id="res_motorcycle154" type="res_motorcycle_motorcycle" depart="369.60" departLane="best" from="E5" to="E6"/>
    <trip id="res_motorcycle156" type="res_motorcycle_motorcycle" depart="374.40" departLane="best" departSpeed="max" from="E12" to="E1"/>
    <trip id="res_motorcycle158" type="res_motorcycle_motorcycle" depart="379.20" departLane="best" departSpeed="max" from="E19" to="E22"/>
    <trip id="res_motorcycle162" type="res_motorcycle_motorcycle" depart="388.80" departLane="best" from="E0" to="E4"/>
    <trip id="res_motorcycle164" type="res_motorcycle_motorcycle" depart="393.60" departLane="best" from="E5" to="E6"/>
    <trip id="res_motorcycle165" type="res_motorcycle_motorcycle" depart="396.00" departLane="best" from="E5" to="E14"/>
    <trip id="res_motorcycle166" type="res_motorcycle_motorcycle" depart="398.40" departLane="best" from="E5" to="E1"/>
    <trip id="res_motorcycle167" type="res_motorcycle_motorcycle" depart="400.80" departLane="best" from="E6" to="E6"/>
    <trip id="res_motorcycle170" type="res_motorcycle_motorcycle" depart="408.00" departLane="best" from="E5" to="E13"/>
    <trip id="res_motorcycle171" type="res_motorcycle_motorcycle" depart="410.40" departLane="best" from="E0" to="E13"/>
    <trip id="res_motorcycle172" type="res_motorcycle_motorcycle" depart="412.80" departLane="best" departSpeed="max" from="E18" to="E6"/>
    <trip id="res_motorcycle173" type="res_motorcycle_motorcycle" depart="415.20" departLane="best" departSpeed="max" from="E9" to="E14"/>
    <trip id="res_motorcycle174" type="res_motorcycle_motorcycle" depart="417.60" departLane="best" from="E3" to="E17"/>
    <trip id="res_motorcycle175" type="res_motorcycle_motorcycle" depart="420.00" departLane="best" departSpeed="max" from="E9" to="E20"/>
    <trip id="res_motorcycle177" type="res_motorcycle_motorcycle" depart="424.80" departLane="best" departSpeed="max" from="E9" to="E10"/>
    <trip id="res_motorcycle178" type="res_motorcycle_motorcycle" depart="427.20" departLane="best" departSpeed="max" from="E9" to="E14"/>
    <trip id="res_motorcycle181" type="res_motorcycle_motorcycle" depart="434.40" departLane="best" departSpeed="max" from="E23" to="E20"/>
    <trip id="res_motorcycle182" type="res_motorcycle_motorcycle" depart="436.80" departLane="best" departSpeed="max" from="E19" to="E22"/>
    <trip id="res_motorcycle185" type="res_motorcycle_motorcycle" depart="444.00" departLane="best" departSpeed="max" from="E21" to="E4"/>
    <trip id="res_motorcycle188" type="res_motorcycle_motorcycle" depart="451.20" departLane="best" from="E3" to="E15"/>
    <trip id="res_motorcycle189" type="res_motorcycle_motorcycle" depart="453.60" departLane="best" departSpeed="max" from="E18" to="E6"/>
    <trip id="res_motorcycle191" type="res_motorcycle_motorcycle" depart="458.40" departLane="best" departSpeed="max" from="E16" to="E17"/>
    <trip id="res_motorcycle192" type="res_motorcycle_motorcycle" depart="460.80" departLane="best" departSpeed="max" from="E19" to="E14"/>
    <trip id="res_motorcycle193" type="res_motorcycle_motorcycle" depart="463.20" departLane="best" departSpeed="max" from="E11" to="E17"/>
    <trip id="res_motorcycle195" type="res_motorcycle_motorcycle" depart="468.00" departLane="best" from="E7" to="E22"/>
    <trip id="res_motorcycle196" type="res_motorcycle_motorcycle" depart="470.40" departLane="best" departSpeed="max" from="E16" to="E20"/>
    <trip id="res_motorcycle197" type="res_motorcycle_motorcycle" depart="472.80" departLane="best" from="E0" to="E14"/>
    <trip id="res_motorcycle198" type="res_motorcycle_motorcycle" depart="475.20" departLane="best" departSpeed="max" from="E19" to="E22"/>
    <trip id="res_motorcycle204" type="res_motorcycle_motorcycle" depart="489.60" departLane="best" from="E3" to="E15"/>
    <trip id="res_motorcycle206" type="res_motorcycle_motorcycle" depart="494.40" departLane="best" from="E3" to="E13"/>
    <trip id="res_motorcycle208" type="res_motorcycle_motorcycle" depart="499.20" departLane="best" departSpeed="max" from="E12" to="E2"/>
    <trip id="res_motorcycle211" type="res_motorcycle_motorcycle" depart="506.40" departLane="best" departSpeed="max" from="E12" to="E4"/>
    <trip id="res_motorcycle214" type="res_motorcycle_motorcycle" depart="513.60" departLane="best" from="E5" to="E5"/>
    <trip id="res_motorcycle216" type="res_motorcycle_motorcycle" depart="518.40" departLane="best" departSpeed="max" from="E11" to="E8"/>
    <trip id="res_motorcycle220" type="res_motorcycle_motorcycle" depart="528.00" departLane="best" from="E3" to="E8"/>
    <trip id="res_motorcycle221" type="res_motorcycle_motorcycle" depart="530.40" departLane="best" departSpeed="max" from="E23" to="E8"/>
    <trip id="res_motorcycle222" type="res_motorcycle_motorcycle" depart="532.80" departLane="best" from="E7" to="E22"/>
    <trip id="res_motorcycle225" type="res_motorcycle_motorcycle" depart="540.00" departLane="best" from="E7" to="E4"/>
    <trip id="res_motorcycle228" type="res_motorcycle_motorcycle" depart="547.20" departLane="best" from="E5" to="E20"/>
    <trip id="res_motorcycle229" type="res_motorcycle_motorcycle" depart="549.60" departLane="best" from="E3" to="E14"/>
    <trip id="res_motorcycle231" type="res_motorcycle_motorcycle" depart="554.40" departLane="best" departSpeed="max" from="E16" to="E15"/>
    <trip id="res_motorcycle232" type="res_motorcycle_motorcycle" depart="556.80" departLane="best" departSpeed="max" from="E21" to="E10"/>
    <trip id="res_motorcycle233" type="res_motorcycle_motorcycle" depart="559.20" departLane="best" departSpeed="max" from="E12" to="E4"/>
    <trip id="res_motorcycle235" type="res_motorcycle_motorcycle" depart="564.00" departLane="best" departSpeed="max" from="E19" to="E20"/>
    <trip id="res_motorcycle236" type="res_motorcycle_motorcycle" depart="566.40" departLane="best" departSpeed="max" from="E19" to="E13"/>
    <trip id="res_motorcycle237" type="res_motorcycle_motorcycle" depart="568.80" departLane="best" departSpeed="max" from="E19" to="E7"/>
    <trip id="res_motorcycle238" type="res_motorcycle_motorcycle" depart="571.20" departLane="best" departSpeed="max" from="E23" to="E4"/>
    <trip id="res_motorcycle243" type="res_motorcycle_motorcycle" depart="583.20" departLane="best" departSpeed="max" from="E19" to="E4"/>
    <trip id="res_motorcycle244" type="res_motorcycle_motorcycle" depart="585.60" departLane="best" departSpeed="max" from="E21" to="E22"/>
    <trip id="res_motorcycle248" type="res_motorcycle_motorcycle" depart="595.20" departLane="best" departSpeed="max" from="E19" to="E10"/>
    <trip id="res_motorcycle251" type="res_motorcycle_motorcycle" depart="602.40" departLane="best" departSpeed="max" from="E19" to="E22"/>
    <trip id="res_motorcycle253" type="res_motorcycle_motorcycle" depart="607.20" departLane="best" departSpeed="max" from="E11" to="E2"/>
    <trip id="res_motorcycle254" type="res_motorcycle_motorcycle" depart="609.60" departLane="best" from="E0" to="E17"/>
    <trip id="res_motorcycle255" type="res_motorcycle_motorcycle" depart="612.00" departLane="best" departSpeed="max" from="E12" to="E15"/>
    <trip id="res_motorcycle257" type="res_motorcycle_motorcycle" depart="616.80" departLane="best" from="E5" to="E6"/>
    <trip id="res_motorcycle258" type="res_motorcycle_motorcycle" depart="619.20" departLane="best" departSpeed="max" from="E16" to="E1"/>
    <trip id="res_motorcycle259" type="res_motorcycle_motorcycle" depart="621.60" departLane="best" from="E0" to="E20"/>
    <trip id="res_motorcycle260" type="res_motorcycle_motorcycle" depart="624.00" departLane="best" departSpeed="max" from="E9" to="E15"/>
    <trip id="res_motorcycle263" type="res_motorcycle_motorcycle" depart="631.20" departLane="best" departSpeed="max" from="E9" to="E13"/>
    <trip id="res_motorcycle264" type="res_motorcycle_motorcycle" depart="633.60" departLane="best" from="E0" to="E10"/>
    <trip id="res_motorcycle266" type="res_motorcycle_motorcycle" depart="638.40" departLane="best" departSpeed="max" from="E23" to="E13"/>
    <trip id="res_motorcycle268" type="res_motorcycle_motorcycle" depart="643.20" departLane="best" departSpeed="max" from="E11" to="E22"/>
    <trip id="res_motorcycle273" type="res_motorcycle_motorcycle" depart="655.20" departLane="best" departSpeed="max" from="E9" to="E17"/>
    <trip id="res_motorcycle278" type="res_motorcycle_motorcycle" depart="667.20" departLane="best" from="E1" to="E8"/>
    <trip id="res_motorcycle279" type="res_motorcycle_motorcycle" depart="669.60" departLane="best" from="E5" to="E15"/>
    <trip id="res_motorcycle280" type="res_motorcycle_motorcycle" depart="672.00" departLane="best" departSpeed="max" from="E19" to="E15"/>
    <trip id="res_motorcycle281" type="res_motorcycle_motorcycle" depart="674.40" departLane="best" departSpeed="max" from="E21" to="E15"/>
    <trip id="res_motorcycle282" type="res_motorcycle_motorcycle" depart="676.80" departLane="best" from="E6" to="E6"/>
    <trip id="res_motorcycle283" type="res_motorcycle_motorcycle" depart="679.20" departLane="best" from="E1" to="E8"/>
    <trip id="res_motorcycle284" type="res_motorcycle_motorcycle" depart="681.60" departLane="best" from="E3" to="E6"/>
    <trip id="res_motorcycle285" type="res_motorcycle_motorcycle" depart="684.00" departLane="best" from="E4" to="E17"/>
    <trip id="res_motorcycle287" type="res_motorcycle_motorcycle" depart="688.80" departLane="best" departSpeed="max" from="E16" to="E5"/>
    <trip id="res_motorcycle289" type="res_motorcycle_motorcycle" depart="693.60" departLane="best" departSpeed="max" from="E19" to="E4"/>
    <trip id="res_motorcycle290" type="res_motorcycle_motorcycle" depart="696.00" departLane="best" departSpeed="max" from="E16" to="E6"/>
    <trip id="res_motorcycle293" type="res_motorcycle_motorcycle" depart="703.20" departLane="best" from="E2" to="E22"/>
    <trip id="res_motorcycle307" type="res_motorcycle_motorcycle" depart="736.80" departLane="best" departSpeed="max" from="E21" to="E17"/>
    <trip id="res_motorcycle310" type="res_motorcycle_motorcycle" depart="744.00" departLane="best" departSpeed="max" from="E16" to="E1"/>
    <trip id="res_motorcycle311" type="res_motorcycle_motorcycle" depart="746.40" departLane="best" departSpeed="max" from="E12" to="E1"/>
    <trip id="res_motorcycle313" type="res_motorcycle_motorcycle" depart="751.20" departLane="best" departSpeed="max" from="E11" to="E13"/>
    <trip id="res_motorcycle315" type="res_motorcycle_motorcycle" depart="756.00" departLane="best" departSpeed="max" from="E9" to="E20"/>
    <trip id="res_motorcycle316" type="res_motorcycle_motorcycle" depart="758.40" departLane="best" departSpeed="max" from="E16" to="E1"/>
    <trip id="res_motorcycle319" type="res_motorcycle_motorcycle" depart="765.60" departLane="best" departSpeed="max" from="E21" to="E14"/>
    <trip id="res_motorcycle320" type="res_motorcycle_motorcycle" depart="768.00" departLane="best" departSpeed="max" from="E9" to="E20"/>
    <trip id="res_motorcycle321" type="res_motorcycle_motorcycle" depart="770.40" departLane="best" from="E4" to="E10"/>
    <trip id="res_motorcycle324" type="res_motorcycle_motorcycle" depart="777.60" departLane="best" from="E2" to="E2"/>
    <trip id="res_motorcycle326" type="res_motorcycle_motorcycle" depart="782.40" departLane="best" departSpeed="max" from="E9" to="E2"/>
    <trip id="res_motorcycle329" type="res_motorcycle_motorcycle" depart="789.60" departLane="best" from="E0" to="E10"/>
    <trip id="res_motorcycle330" type="res_motorcycle_motorcycle" depart="792.00" departLane="best" departSpeed="max" from="E23" to="E14"/>
    <trip id="res_motorcycle332" type="res_motorcycle_motorcycle" depart="796.80" departLane="best" from="E5" to="E22"/>
    <trip id="res_motorcycle333" type="res_motorcycle_motorcycle" depart="799.20" departLane="best" from="E5" to="E13"/>
    <trip id="res_motorcycle336" type="res_motorcycle_motorcycle" depart="806.40" departLane="best" departSpeed="max" from="E9" to="E14"/>
    <trip id="res_motorcycle337" type="res_motorcycle_motorcycle" depart="808.80" departLane="best" departSpeed="max" from="E23" to="E22"/>
    <trip id="res_motorcycle340" type="res_motorcycle_motorcycle" depart="816.00" departLane="best" from="E3" to="E10"/>
    <trip id="res_motorcycle341" type="res_motorcycle_motorcycle" depart="818.40" departLane="best" departSpeed="max" from="E11" to="E1"/>
    <trip id="res_motorcycle342" type="res_motorcycle_motorcycle" depart="820.80" departLane="best" from="E0" to="E2"/>
    <trip id="res_motorcycle343" type="res_motorcycle_motorcycle" depart="823.20" departLane="best" departSpeed="max" from="E23" to="E14"/>
    <trip id="res_motorcycle344" type="res_motorcycle_motorcycle" depart="825.60" departLane="best" departSpeed="max" from="E12" to="E4"/>
    <trip id="res_motorcycle349" type="res_motorcycle_motorcycle" depart="837.60" departLane="best" departSpeed="max" from="E19" to="E20"/>
    <trip id="res_motorcycle352" type="res_motorcycle_motorcycle" depart="844.80" departLane="best" departSpeed="max" from="E11" to="E14"/>
    <trip id="res_motorcycle354" type="res_motorcycle_motorcycle" depart="849.60" departLane="best" departSpeed="max" from="E16" to="E1"/>
    <trip id="res_motorcycle355" type="res_motorcycle_motorcycle" depart="852.00" departLane="best" from="E4" to="E4"/>
    <trip id="res_motorcycle356" type="res_motorcycle_motorcycle" depart="854.40" departLane="best" departSpeed="max" from="E9" to="E20"/>
    <trip id="res_motorcycle358" type="res_motorcycle_motorcycle" depart="859.20" departLane="best" from="E0" to="E17"/>
    <trip id="res_motorcycle359" type="res_motorcycle_motorcycle" depart="861.60" departLane="best" departSpeed="max" from="E18" to="E14"/>
    <trip id="res_motorcycle360" type="res_motorcycle_motorcycle" depart="864.00" departLane="best" from="E1" to="E8"/>
    <trip id="res_motorcycle363" type="res_motorcycle_motorcycle" depart="871.20" departLane="best" from="E3" to="E14"/>
    <trip id="res_motorcycle366" type="res_motorcycle_motorcycle" depart="878.40" departLane="best" from="E7" to="E10"/>
    <trip id="res_motorcycle367" type="res_motorcycle_motorcycle" depart="880.80" departLane="best" departSpeed="max" from="E23" to="E3"/>
    <trip id="res_motorcycle369" type="res_motorcycle_motorcycle" depart="885.60" departLane="best" departSpeed="max" from="E18" to="E15"/>
    <trip id="res_motorcycle370" type="res_motorcycle_motorcycle" depart="888.00" departLane="best" from="E3" to="E6"/>
    <trip id="res_motorcycle371" type="res_motorcycle_motorcycle" depart="890.40" departLane="best" departSpeed="max" from="E18" to="E4"/>
    <trip id="res_motorcycle372" type="res_motorcycle_motorcycle" depart="892.80" departLane="best" departSpeed="max" from="E16" to="E8"/>
    <trip id="res_motorcycle375" type="res_motorcycle_motorcycle" depart="900.00" departLane="best" departSpeed="max" from="E18" to="E8"/>
    <trip id="res_motorcycle376" type="res_motorcycle_motorcycle" depart="902.40" departLane="best" departSpeed="max" from="E19" to="E20"/>
    <trip id="res_motorcycle378" type="res_motorcycle_motorcycle" depart="907.20" departLane="best" departSpeed="max" from="E21" to="E17"/>
    <trip id="res_motorcycle379" type="res_motorcycle_motorcycle" depart="909.60" departLane="best" departSpeed="max" from="E12" to="E15"/>
    <trip id="res_motorcycle381" type="res_motorcycle_motorcycle" depart="914.40" departLane="best" from="E5" to="E13"/>
    <trip id="res_motorcycle384" type="res_motorcycle_motorcycle" depart="921.60" departLane="best" from="E1" to="E8"/>
    <trip id="res_motorcycle385" type="res_motorcycle_motorcycle" depart="924.00" departLane="best" departSpeed="max" from="E23" to="E13"/>
    <trip id="res_motorcycle386" type="res_motorcycle_motorcycle" depart="926.40" departLane="best" departSpeed="max" from="E11" to="E20"/>
    <trip id="res_motorcycle387" type="res_motorcycle_motorcycle" depart="928.80" departLane="best" departSpeed="max" from="E21" to="E1"/>
    <trip id="res_motorcycle392" type="res_motorcycle_motorcycle" depart="940.80" departLane="best" departSpeed="max" from="E16" to="E6"/>
    <trip id="res_motorcycle393" type="res_motorcycle_motorcycle" depart="943.20" departLane="best" departSpeed="max" from="E9" to="E13"/>
    <trip id="res_motorcycle394" type="res_motorcycle_motorcycle" depart="945.60" departLane="best" departSpeed="max" from="E21" to="E17"/>
    <trip id="res_motorcycle395" type="res_motorcycle_motorcycle" depart="948.00" departLane="best" from="E7" to="E20"/>
    <trip id="res_motorcycle397" type="res_motorcycle_motorcycle" depart="952.80" departLane="best" departSpeed="max" from="E16" to="E5"/>
    <trip id="res_motorcycle398" type="res_motorcycle_motorcycle" depart="955.20" departLane="best" departSpeed="max" from="E19" to="E7"/>
    <trip id="res_motorcycle399" type="res_motorcycle_motorcycle" depart="957.60" departLane="best" departSpeed="max" from="E21" to="E6"/>
    <trip id="res_motorcycle400" type="res_motorcycle_motorcycle" depart="960.00" departLane="best" departSpeed="max" from="E16" to="E14"/>
    <trip id="res_motorcycle401" type="res_motorcycle_motorcycle" depart="962.40" departLane="best" departSpeed="max" from="E23" to="E8"/>
    <trip id="res_motorcycle403" type="res_motorcycle_motorcycle" depart="967.20" departLane="best" departSpeed="max" from="E21" to="E15"/>
    <trip id="res_motorcycle406" type="res_motorcycle_motorcycle" depart="974.40" departLane="best" departSpeed="max" from="E12" to="E4"/>
    <trip id="res_motorcycle407" type="res_motorcycle_motorcycle" depart="976.80" departLane="best" departSpeed="max" from="E23" to="E13"/>
    <trip id="res_motorcycle409" type="res_motorcycle_motorcycle" depart="981.60" departLane="best" from="E4" to="E4"/>
    <trip id="res_motorcycle411" type="res_motorcycle_motorcycle" depart="986.40" departLane="best" from="E3" to="E6"/>
    <trip id="res_motorcycle412" type="res_motorcycle_motorcycle" depart="988.80" departLane="best" departSpeed="max" from="E9" to="E2"/>