<?xml version="1.0" encoding="UTF-8"?>

<!-- generated on 2025-07-18 11:02:15 by Eclipse SUMO netedit Version 1.22.0
-->

<additional xmlns:xsi="http://www.w3.org/2001/XMLSchema-instance" xsi:noNamespaceSchemaLocation="http://sumo.dlr.de/xsd/additional_file.xsd">
    <!-- Detectors -->
    <laneAreaDetector id="e2_0" lane="E3_1" pos="1.50" length="100.00" period="300.00" file="e2_0.xml" friendlyPos="1"/>
    <laneAreaDetector id="e2_1" lane="E3_2" pos="1.50" length="100.00" period="300.00" file="e2_1.xml" friendlyPos="1"/>
    <laneAreaDetector id="e2_10" lane="E7_2" pos="23.00" length="100.00" period="300.00" file="e2_10.xml" friendlyPos="1"/>
    <laneAreaDetector id="e2_11" lane="E7_1" pos="23.00" length="100.00" period="300.00" file="e2_11.xml" friendlyPos="1"/>
    <laneAreaDetector id="e2_12" lane="E0_4" pos="13.00" length="100.00" period="300.00" file="e2_12.xml" friendlyPos="1"/>
    <laneAreaDetector id="e2_13" lane="E7_4" pos="23.00" length="100.00" period="300.00" file="e2_13.xml" friendlyPos="1"/>
    <laneAreaDetector id="e2_14" lane="E5_2" pos="26.00" length="100.00" period="300.00" file="e2_14.xml" friendlyPos="1"/>
    <laneAreaDetector id="e2_15" lane="E5_1" pos="26.00" length="100.00" period="300.00" file="e2_15.xml" friendlyPos="1"/>
    <laneAreaDetector id="e2_2" lane="E3_3" pos="1.50" length="100.00" period="300.00" file="e2_2.xml" friendlyPos="1"/>
    <laneAreaDetector id="e2_3" lane="E0_3" pos="13.00" length="100.00" period="300.00" file="e2_3.xml" friendlyPos="1"/>
    <laneAreaDetector id="e2_4" lane="E0_1" pos="13.00" length="100.00" period="300.00" file="e2_4.xml" friendlyPos="1"/>
    <laneAreaDetector id="e2_5" lane="E0_2" pos="13.00" length="100.00" period="300.00" file="e2_5.xml" friendlyPos="1"/>
    <laneAreaDetector id="e2_6" lane="E7_3" pos="23.00" length="100.00" period="300.00" file="e2_6.xml" friendlyPos="1"/>
    <laneAreaDetector id="e2_7" lane="E5_3" pos="26.00" length="100.00" period="300.00" file="e2_7.xml" friendlyPos="1"/>
    <laneAreaDetector id="e2_8" lane="E5_4" pos="26.00" length="100.00" period="300.00" file="e2_8.xml" friendlyPos="1"/>
    <laneAreaDetector id="e2_9" lane="E3_4" pos="1.50" length="100.00" period="300.00" file="e2_9.xml" friendlyPos="1"/>
</additional>
