<?xml version="1.0" encoding="UTF-8"?>

<!-- generated on 2025-08-19 18:12:33 by Eclipse SUMO duarouter Version 1.24.0
<duarouterConfiguration xmlns:xsi="http://www.w3.org/2001/XMLSchema-instance" xsi:noNamespaceSchemaLocation="http://sumo.dlr.de/xsd/duarouterConfiguration.xsd">

    <input>
        <net-file value="osm.net.xml.gz"/>
        <route-files value="osm.res_veh.trips.xml"/>
    </input>

    <output>
        <output-file value="osm.res_veh.rou.xml"/>
    </output>

    <report>
        <ignore-errors value="true"/>
    </report>

</duarouterConfiguration>
-->

<routes xmlns:xsi="http://www.w3.org/2001/XMLSchema-instance" xsi:noNamespaceSchemaLocation="http://sumo.dlr.de/xsd/routes_file.xsd">
    <vType id="res_veh_int0_passenger" vClass="passenger"/>
    <vehicle id="res_veh_int01" type="res_veh_int0_passenger" depart="40.00" departLane="best" departSpeed="max">
        <route edges="E22 E18.410"/>
    </vehicle>
    <vehicle id="res_veh_int02" type="res_veh_int0_passenger" depart="80.00" departLane="best" departSpeed="max">
        <route edges="E30 E30.558"/>
    </vehicle>
    <vehicle id="res_veh_int04" type="res_veh_int0_passenger" depart="160.00" departLane="best" departSpeed="max">
        <route edges="E22 E18.410"/>
    </vehicle>
    <vehicle id="res_veh_int05" type="res_veh_int0_passenger" depart="200.00" departLane="best" departSpeed="max">
        <route edges="E22 E30.558"/>
    </vehicle>
    <vehicle id="res_veh_int06" type="res_veh_int0_passenger" depart="240.00" departLane="best" departSpeed="max">
        <route edges="E18 E18.410"/>
    </vehicle>
    <vehicle id="res_veh_int07" type="res_veh_int0_passenger" depart="280.00" departLane="best" departSpeed="max">
        <route edges="E30 E30.558"/>
    </vehicle>
    <vehicle id="res_veh_int08" type="res_veh_int0_passenger" depart="320.00" departLane="best" departSpeed="max">
        <route edges="E22 E30.558"/>
    </vehicle>
    <vehicle id="res_veh_int010" type="res_veh_int0_passenger" depart="400.00" departLane="best" departSpeed="max">
        <route edges="E30 E30.558"/>
    </vehicle>
    <vehicle id="res_veh_int011" type="res_veh_int0_passenger" depart="440.00" departLane="best" departSpeed="max">
        <route edges="E22 E18.410"/>
    </vehicle>
    <vehicle id="res_veh_int013" type="res_veh_int0_passenger" depart="520.00" departLane="best" departSpeed="max">
        <route edges="E22 E18.410"/>
    </vehicle>
    <vehicle id="res_veh_int014" type="res_veh_int0_passenger" depart="560.00" departLane="best" departSpeed="max">
        <route edges="E30 E30.558"/>
    </vehicle>
    <vehicle id="res_veh_int015" type="res_veh_int0_passenger" depart="600.00" departLane="best" departSpeed="max">
        <route edges="E30 E30.558"/>
    </vehicle>
    <vehicle id="res_veh_int017" type="res_veh_int0_passenger" depart="680.00" departLane="best" departSpeed="max">
        <route edges="E22 E30.558"/>
    </vehicle>
    <vehicle id="res_veh_int018" type="res_veh_int0_passenger" depart="720.00" departLane="best" departSpeed="max">
        <route edges="E30 E30.558"/>
    </vehicle>
    <vehicle id="res_veh_int019" type="res_veh_int0_passenger" depart="760.00" departLane="best" departSpeed="max">
        <route edges="E30 E30.558"/>
    </vehicle>
    <vehicle id="res_veh_int021" type="res_veh_int0_passenger" depart="840.00" departLane="best" departSpeed="max">
        <route edges="E22 E22.488"/>
    </vehicle>
    <vehicle id="res_veh_int022" type="res_veh_int0_passenger" depart="880.00" departLane="best" departSpeed="max">
        <route edges="E22 E18.410"/>
    </vehicle>
    <vehicle id="res_veh_int023" type="res_veh_int0_passenger" depart="920.00" departLane="best" departSpeed="max">
        <route edges="E22 E22.488"/>
    </vehicle>
    <vehicle id="res_veh_int024" type="res_veh_int0_passenger" depart="960.00" departLane="best" departSpeed="max">
        <route edges="E30 E22.488"/>
    </vehicle>
    <vehicle id="res_veh_int025" type="res_veh_int0_passenger" depart="1000.00" departLane="best" departSpeed="max">
        <route edges="E22 E18.410"/>
    </vehicle>
    <vehicle id="res_veh_int027" type="res_veh_int0_passenger" depart="1080.00" departLane="best" departSpeed="max">
        <route edges="E30 E30.558"/>
    </vehicle>
    <vehicle id="res_veh_int028" type="res_veh_int0_passenger" depart="1120.00" departLane="best" departSpeed="max">
        <route edges="E22 E30.558"/>
    </vehicle>
    <vehicle id="res_veh_int029" type="res_veh_int0_passenger" depart="1160.00" departLane="best" departSpeed="max">
        <route edges="E22 E22.488"/>
    </vehicle>
    <vehicle id="res_veh_int030" type="res_veh_int0_passenger" depart="1200.00" departLane="best" departSpeed="max">
        <route edges="E31 E30.558"/>
    </vehicle>
    <vehicle id="res_veh_int031" type="res_veh_int0_passenger" depart="1240.00" departLane="best" departSpeed="max">
        <route edges="E22 E30.558"/>
    </vehicle>
    <vehicle id="res_veh_int032" type="res_veh_int0_passenger" depart="1280.00" departLane="best" departSpeed="max">
        <route edges="E30 E31.622"/>
    </vehicle>
    <vehicle id="res_veh_int033" type="res_veh_int0_passenger" depart="1320.00" departLane="best" departSpeed="max">
        <route edges="E22 E18.410"/>
    </vehicle>
    <vehicle id="res_veh_int034" type="res_veh_int0_passenger" depart="1360.00" departLane="best" departSpeed="max">
        <route edges="E22 E22.488"/>
    </vehicle>
    <vehicle id="res_veh_int036" type="res_veh_int0_passenger" depart="1440.00" departLane="best" departSpeed="max">
        <route edges="E30 E22.488"/>
    </vehicle>
    <vehicle id="res_veh_int037" type="res_veh_int0_passenger" depart="1480.00" departLane="best" departSpeed="max">
        <route edges="E30 E22.488"/>
    </vehicle>
    <vehicle id="res_veh_int038" type="res_veh_int0_passenger" depart="1520.00" departLane="best" departSpeed="max">
        <route edges="E30 E22.488"/>
    </vehicle>
    <vehicle id="res_veh_int039" type="res_veh_int0_passenger" depart="1560.00" departLane="best" departSpeed="max">
        <route edges="E22 E18.410"/>
    </vehicle>
    <vehicle id="res_veh_int040" type="res_veh_int0_passenger" depart="1600.00" departLane="best" departSpeed="max">
        <route edges="E22 E22.488"/>
    </vehicle>
    <vehicle id="res_veh_int042" type="res_veh_int0_passenger" depart="1680.00" departLane="best" departSpeed="max">
        <route edges="E22 E18.410"/>
    </vehicle>
    <vehicle id="res_veh_int043" type="res_veh_int0_passenger" depart="1720.00" departLane="best" departSpeed="max">
        <route edges="E31 E30.558"/>
    </vehicle>
    <vehicle id="res_veh_int044" type="res_veh_int0_passenger" depart="1760.00" departLane="best" departSpeed="max">
        <route edges="E22 E18.410"/>
    </vehicle>
    <vehicle id="res_veh_int045" type="res_veh_int0_passenger" depart="1800.00" departLane="best" departSpeed="max">
        <route edges="E22 E30.558"/>
    </vehicle>
    <vehicle id="res_veh_int046" type="res_veh_int0_passenger" depart="1840.00" departLane="best" departSpeed="max">
        <route edges="E30 E22.488"/>
    </vehicle>
    <vehicle id="res_veh_int047" type="res_veh_int0_passenger" depart="1880.00" departLane="best" departSpeed="max">
        <route edges="E18 E22.488"/>
    </vehicle>
    <vehicle id="res_veh_int048" type="res_veh_int0_passenger" depart="1920.00" departLane="best" departSpeed="max">
        <route edges="E31 E30.558"/>
    </vehicle>
    <vehicle id="res_veh_int049" type="res_veh_int0_passenger" depart="1960.00" departLane="best" departSpeed="max">
        <route edges="E31 E31.622"/>
    </vehicle>
    <vehicle id="res_veh_int051" type="res_veh_int0_passenger" depart="2040.00" departLane="best" departSpeed="max">
        <route edges="E30 E30.558"/>
    </vehicle>
    <vehicle id="res_veh_int052" type="res_veh_int0_passenger" depart="2080.00" departLane="best" departSpeed="max">
        <route edges="E22 E30.558"/>
    </vehicle>
    <vehicle id="res_veh_int053" type="res_veh_int0_passenger" depart="2120.00" departLane="best" departSpeed="max">
        <route edges="E22 E22.488"/>
    </vehicle>
    <vehicle id="res_veh_int055" type="res_veh_int0_passenger" depart="2200.00" departLane="best" departSpeed="max">
        <route edges="E30 E22.488"/>
    </vehicle>
    <vehicle id="res_veh_int056" type="res_veh_int0_passenger" depart="2240.00" departLane="best" departSpeed="max">
        <route edges="E22 E18.410"/>
    </vehicle>
    <vehicle id="res_veh_int057" type="res_veh_int0_passenger" depart="2280.00" departLane="best" departSpeed="max">
        <route edges="E30 E31.622"/>
    </vehicle>
    <vehicle id="res_veh_int058" type="res_veh_int0_passenger" depart="2320.00" departLane="best" departSpeed="max">
        <route edges="E22 E30.558"/>
    </vehicle>
    <vehicle id="res_veh_int060" type="res_veh_int0_passenger" depart="2400.00" departLane="best" departSpeed="max">
        <route edges="E30 E30.558"/>
    </vehicle>
    <vehicle id="res_veh_int061" type="res_veh_int0_passenger" depart="2440.00" departLane="best" departSpeed="max">
        <route edges="E30 E30.558"/>
    </vehicle>
    <vehicle id="res_veh_int062" type="res_veh_int0_passenger" depart="2480.00" departLane="best" departSpeed="max">
        <route edges="E18 E22.488"/>
    </vehicle>
    <vehicle id="res_veh_int063" type="res_veh_int0_passenger" depart="2520.00" departLane="best" departSpeed="max">
        <route edges="E18 E31.622"/>
    </vehicle>
    <vehicle id="res_veh_int064" type="res_veh_int0_passenger" depart="2560.00" departLane="best" departSpeed="max">
        <route edges="E30 E31.622"/>
    </vehicle>
    <vehicle id="res_veh_int065" type="res_veh_int0_passenger" depart="2600.00" departLane="best" departSpeed="max">
        <route edges="E22 E18.410"/>
    </vehicle>
    <vehicle id="res_veh_int066" type="res_veh_int0_passenger" depart="2640.00" departLane="best" departSpeed="max">
        <route edges="E30 E31.622"/>
    </vehicle>
    <vehicle id="res_veh_int067" type="res_veh_int0_passenger" depart="2680.00" departLane="best" departSpeed="max">
        <route edges="E22 E22.488"/>
    </vehicle>
    <vehicle id="res_veh_int070" type="res_veh_int0_passenger" depart="2800.00" departLane="best" departSpeed="max">
        <route edges="E22 E30.558"/>
    </vehicle>
    <vehicle id="res_veh_int072" type="res_veh_int0_passenger" depart="2880.00" departLane="best" departSpeed="max">
        <route edges="E22 E18.410"/>
    </vehicle>
    <vehicle id="res_veh_int073" type="res_veh_int0_passenger" depart="2920.00" departLane="best" departSpeed="max">
        <route edges="E22 E30.558"/>
    </vehicle>
    <vehicle id="res_veh_int074" type="res_veh_int0_passenger" depart="2960.00" departLane="best" departSpeed="max">
        <route edges="E22 E22.488"/>
    </vehicle>
    <vehicle id="res_veh_int075" type="res_veh_int0_passenger" depart="3000.00" departLane="best" departSpeed="max">
        <route edges="E31 E30.558"/>
    </vehicle>
    <vehicle id="res_veh_int076" type="res_veh_int0_passenger" depart="3040.00" departLane="best" departSpeed="max">
        <route edges="E22 E30.558"/>
    </vehicle>
    <vehicle id="res_veh_int077" type="res_veh_int0_passenger" depart="3080.00" departLane="best" departSpeed="max">
        <route edges="E22 E18.410"/>
    </vehicle>
    <vehicle id="res_veh_int078" type="res_veh_int0_passenger" depart="3120.00" departLane="best" departSpeed="max">
        <route edges="E22 E30.558"/>
    </vehicle>
    <vehicle id="res_veh_int079" type="res_veh_int0_passenger" depart="3160.00" departLane="best" departSpeed="max">
        <route edges="E22 E18.410"/>
    </vehicle>
    <vehicle id="res_veh_int080" type="res_veh_int0_passenger" depart="3200.00" departLane="best" departSpeed="max">
        <route edges="E22 E30.558"/>
    </vehicle>
    <vehicle id="res_veh_int083" type="res_veh_int0_passenger" depart="3320.00" departLane="best" departSpeed="max">
        <route edges="E22 E30.558"/>
    </vehicle>
    <vehicle id="res_veh_int084" type="res_veh_int0_passenger" depart="3360.00" departLane="best" departSpeed="max">
        <route edges="E22 E18.410"/>
    </vehicle>
    <vehicle id="res_veh_int085" type="res_veh_int0_passenger" depart="3400.00" departLane="best" departSpeed="max">
        <route edges="E30 E30.558"/>
    </vehicle>
    <vehicle id="res_veh_int088" type="res_veh_int0_passenger" depart="3520.00" departLane="best" departSpeed="max">
        <route edges="E22 E22.488"/>
    </vehicle>
    <vehicle id="res_veh_int089" type="res_veh_int0_passenger" depart="3560.00" departLane="best" departSpeed="max">
        <route edges="E22 E22.488"/>
    </vehicle>
    <vType id="res_veh_int1_passenger" vClass="passenger"/>
    <vehicle id="res_veh_int10" type="res_veh_int1_passenger" depart="3601.00" departLane="best" departSpeed="max">
        <route edges="E31 E18.410"/>
    </vehicle>
    <vehicle id="res_veh_int11" type="res_veh_int1_passenger" depart="3620.99" departLane="best" departSpeed="max">
        <route edges="E18 E18.410"/>
    </vehicle>
    <vehicle id="res_veh_int12" type="res_veh_int1_passenger" depart="3640.99" departLane="best" departSpeed="max">
        <route edges="E31 E30.558"/>
    </vehicle>
    <vehicle id="res_veh_int13" type="res_veh_int1_passenger" depart="3660.98" departLane="best" departSpeed="max">
        <route edges="E31 E18.410"/>
    </vehicle>
    <vehicle id="res_veh_int16" type="res_veh_int1_passenger" depart="3720.97" departLane="best" departSpeed="max">
        <route edges="E18 E18.410"/>
    </vehicle>
    <vehicle id="res_veh_int17" type="res_veh_int1_passenger" depart="3740.96" departLane="best" departSpeed="max">
        <route edges="E31 E30.558"/>
    </vehicle>
    <vehicle id="res_veh_int19" type="res_veh_int1_passenger" depart="3780.95" departLane="best" departSpeed="max">
        <route edges="E31 E18.410"/>
    </vehicle>
    <vehicle id="res_veh_int110" type="res_veh_int1_passenger" depart="3800.94" departLane="best" departSpeed="max">
        <route edges="E31 E30.558"/>
    </vehicle>
    <vehicle id="res_veh_int111" type="res_veh_int1_passenger" depart="3820.94" departLane="best" departSpeed="max">
        <route edges="E18 E18.410"/>
    </vehicle>
    <vehicle id="res_veh_int113" type="res_veh_int1_passenger" depart="3860.93" departLane="best" departSpeed="max">
        <route edges="E18 E18.410"/>
    </vehicle>
    <vehicle id="res_veh_int114" type="res_veh_int1_passenger" depart="3880.92" departLane="best" departSpeed="max">
        <route edges="E31 E30.558"/>
    </vehicle>
    <vehicle id="res_veh_int115" type="res_veh_int1_passenger" depart="3900.92" departLane="best" departSpeed="max">
        <route edges="E31 E30.558"/>
    </vehicle>
    <vehicle id="res_veh_int116" type="res_veh_int1_passenger" depart="3920.91" departLane="best" departSpeed="max">
        <route edges="E30 E31.622"/>
    </vehicle>
    <vehicle id="res_veh_int117" type="res_veh_int1_passenger" depart="3940.91" departLane="best" departSpeed="max">
        <route edges="E30 E30.558"/>
    </vehicle>
    <vehicle id="res_veh_int118" type="res_veh_int1_passenger" depart="3960.90" departLane="best" departSpeed="max">
        <route edges="E31 E30.558"/>
    </vehicle>
    <vehicle id="res_veh_int119" type="res_veh_int1_passenger" depart="3980.89" departLane="best" departSpeed="max">
        <route edges="E31 E30.558"/>
    </vehicle>
    <vehicle id="res_veh_int120" type="res_veh_int1_passenger" depart="4000.89" departLane="best" departSpeed="max">
        <route edges="E31 E18.410"/>
    </vehicle>
    <vehicle id="res_veh_int121" type="res_veh_int1_passenger" depart="4020.88" departLane="best" departSpeed="max">
        <route edges="E18 E22.488"/>
    </vehicle>
    <vehicle id="res_veh_int122" type="res_veh_int1_passenger" depart="4040.88" departLane="best" departSpeed="max">
        <route edges="E18 E18.410"/>
    </vehicle>
    <vehicle id="res_veh_int123" type="res_veh_int1_passenger" depart="4060.87" departLane="best" departSpeed="max">
        <route edges="E18 E22.488"/>
    </vehicle>
    <vehicle id="res_veh_int126" type="res_veh_int1_passenger" depart="4120.86" departLane="best" departSpeed="max">
        <route edges="E18 E31.622"/>
    </vehicle>
    <vehicle id="res_veh_int127" type="res_veh_int1_passenger" depart="4140.85" departLane="best" departSpeed="max">
        <route edges="E31 E30.558"/>
    </vehicle>
    <vehicle id="res_veh_int129" type="res_veh_int1_passenger" depart="4180.84" departLane="best" departSpeed="max">
        <route edges="E18 E22.488"/>
    </vehicle>
    <vehicle id="res_veh_int130" type="res_veh_int1_passenger" depart="4200.83" departLane="best" departSpeed="max">
        <route edges="E31 E30.558"/>
    </vehicle>
    <vehicle id="res_veh_int131" type="res_veh_int1_passenger" depart="4220.83" departLane="best" departSpeed="max">
        <route edges="E30 E30.558"/>
    </vehicle>
    <vehicle id="res_veh_int132" type="res_veh_int1_passenger" depart="4240.82" departLane="best" departSpeed="max">
        <route edges="E31 E31.622"/>
    </vehicle>
    <vehicle id="res_veh_int133" type="res_veh_int1_passenger" depart="4260.82" departLane="best" departSpeed="max">
        <route edges="E18 E18.410"/>
    </vehicle>
    <vehicle id="res_veh_int134" type="res_veh_int1_passenger" depart="4280.81" departLane="best" departSpeed="max">
        <route edges="E18 E22.488"/>
    </vehicle>
    <vehicle id="res_veh_int135" type="res_veh_int1_passenger" depart="4300.81" departLane="best" departSpeed="max">
        <route edges="E18 E31.622"/>
    </vehicle>
    <vehicle id="res_veh_int139" type="res_veh_int1_passenger" depart="4380.78" departLane="best" departSpeed="max">
        <route edges="E18 E18.410"/>
    </vehicle>
    <vehicle id="res_veh_int140" type="res_veh_int1_passenger" depart="4400.78" departLane="best" departSpeed="max">
        <route edges="E30 E22.488"/>
    </vehicle>
    <vehicle id="res_veh_int141" type="res_veh_int1_passenger" depart="4420.77" departLane="best" departSpeed="max">
        <route edges="E31 E31.622"/>
    </vehicle>
    <vehicle id="res_veh_int143" type="res_veh_int1_passenger" depart="4460.76" departLane="best" departSpeed="max">
        <route edges="E31 E30.558"/>
    </vehicle>
    <vehicle id="res_veh_int144" type="res_veh_int1_passenger" depart="4480.76" departLane="best" departSpeed="max">
        <route edges="E18 E18.410"/>
    </vehicle>
    <vehicle id="res_veh_int147" type="res_veh_int1_passenger" depart="4540.74" departLane="best" departSpeed="max">
        <route edges="E18 E22.488"/>
    </vehicle>
    <vehicle id="res_veh_int148" type="res_veh_int1_passenger" depart="4560.73" departLane="best" departSpeed="max">
        <route edges="E31 E30.558"/>
    </vehicle>
    <vehicle id="res_veh_int149" type="res_veh_int1_passenger" depart="4580.73" departLane="best" departSpeed="max">
        <route edges="E31 E31.622"/>
    </vehicle>
    <vehicle id="res_veh_int151" type="res_veh_int1_passenger" depart="4620.72" departLane="best" departSpeed="max">
        <route edges="E31 E30.558"/>
    </vehicle>
    <vehicle id="res_veh_int153" type="res_veh_int1_passenger" depart="4660.71" departLane="best" departSpeed="max">
        <route edges="E18 E22.488"/>
    </vehicle>
    <vehicle id="res_veh_int154" type="res_veh_int1_passenger" depart="4680.70" departLane="best" departSpeed="max">
        <route edges="E30 E31.622"/>
    </vehicle>
    <vehicle id="res_veh_int157" type="res_veh_int1_passenger" depart="4740.68" departLane="best" departSpeed="max">
        <route edges="E31 E31.622"/>
    </vehicle>
    <vehicle id="res_veh_int159" type="res_veh_int1_passenger" depart="4780.67" departLane="best" departSpeed="max">
        <route edges="E31 E18.410"/>
    </vehicle>
    <vehicle id="res_veh_int160" type="res_veh_int1_passenger" depart="4800.67" departLane="best" departSpeed="max">
        <route edges="E31 E30.558"/>
    </vehicle>
    <vehicle id="res_veh_int161" type="res_veh_int1_passenger" depart="4820.66" departLane="best" departSpeed="max">
        <route edges="E31 E30.558"/>
    </vehicle>
    <vehicle id="res_veh_int162" type="res_veh_int1_passenger" depart="4840.66" departLane="best" departSpeed="max">
        <route edges="E18 E22.488"/>
    </vehicle>
    <vehicle id="res_veh_int163" type="res_veh_int1_passenger" depart="4860.65" departLane="best" departSpeed="max">
        <route edges="E18 E31.622"/>
    </vehicle>
    <vehicle id="res_veh_int164" type="res_veh_int1_passenger" depart="4880.64" departLane="best" departSpeed="max">
        <route edges="E31 E31.622"/>
    </vehicle>
    <vehicle id="res_veh_int165" type="res_veh_int1_passenger" depart="4900.64" departLane="best" departSpeed="max">
        <route edges="E18 E18.410"/>
    </vehicle>
    <vehicle id="res_veh_int166" type="res_veh_int1_passenger" depart="4920.63" departLane="best" departSpeed="max">
        <route edges="E31 E31.622"/>
    </vehicle>
    <vehicle id="res_veh_int167" type="res_veh_int1_passenger" depart="4940.63" departLane="best" departSpeed="max">
        <route edges="E18 E22.488"/>
    </vehicle>
    <vehicle id="res_veh_int168" type="res_veh_int1_passenger" depart="4960.62" departLane="best" departSpeed="max">
        <route edges="E18 E31.622"/>
    </vehicle>
    <vehicle id="res_veh_int169" type="res_veh_int1_passenger" depart="4980.62" departLane="best" departSpeed="max">
        <route edges="E31 E18.410"/>
    </vehicle>
    <vehicle id="res_veh_int170" type="res_veh_int1_passenger" depart="5000.61" departLane="best" departSpeed="max">
        <route edges="E30 E30.558"/>
    </vehicle>
    <vehicle id="res_veh_int171" type="res_veh_int1_passenger" depart="5020.61" departLane="best" departSpeed="max">
        <route edges="E18 E31.622"/>
    </vehicle>
    <vehicle id="res_veh_int173" type="res_veh_int1_passenger" depart="5060.59" departLane="best" departSpeed="max">
        <route edges="E30 E30.558"/>
    </vehicle>
    <vehicle id="res_veh_int174" type="res_veh_int1_passenger" depart="5080.59" departLane="best" departSpeed="max">
        <route edges="E18 E22.488"/>
    </vehicle>
    <vehicle id="res_veh_int175" type="res_veh_int1_passenger" depart="5100.58" departLane="best" departSpeed="max">
        <route edges="E31 E30.558"/>
    </vehicle>
    <vehicle id="res_veh_int176" type="res_veh_int1_passenger" depart="5120.58" departLane="best" departSpeed="max">
        <route edges="E30 E30.558"/>
    </vehicle>
    <vehicle id="res_veh_int177" type="res_veh_int1_passenger" depart="5140.57" departLane="best" departSpeed="max">
        <route edges="E18 E18.410"/>
    </vehicle>
    <vehicle id="res_veh_int179" type="res_veh_int1_passenger" depart="5180.56" departLane="best" departSpeed="max">
        <route edges="E18 E18.410"/>
    </vehicle>
    <vehicle id="res_veh_int181" type="res_veh_int1_passenger" depart="5220.55" departLane="best" departSpeed="max">
        <route edges="E18 E31.622"/>
    </vehicle>
    <vehicle id="res_veh_int182" type="res_veh_int1_passenger" depart="5240.54" departLane="best" departSpeed="max">
        <route edges="E31 E18.410"/>
    </vehicle>
    <vehicle id="res_veh_int184" type="res_veh_int1_passenger" depart="5280.53" departLane="best" departSpeed="max">
        <route edges="E18 E18.410"/>
    </vehicle>
    <vehicle id="res_veh_int185" type="res_veh_int1_passenger" depart="5300.53" departLane="best" departSpeed="max">
        <route edges="E31 E30.558"/>
    </vehicle>
    <vehicle id="res_veh_int186" type="res_veh_int1_passenger" depart="5320.52" departLane="best" departSpeed="max">
        <route edges="E30 E31.622"/>
    </vehicle>
    <vehicle id="res_veh_int187" type="res_veh_int1_passenger" depart="5340.52" departLane="best" departSpeed="max">
        <route edges="E31 E18.410"/>
    </vehicle>
    <vehicle id="res_veh_int188" type="res_veh_int1_passenger" depart="5360.51" departLane="best" departSpeed="max">
        <route edges="E18 E22.488"/>
    </vehicle>
    <vehicle id="res_veh_int189" type="res_veh_int1_passenger" depart="5380.51" departLane="best" departSpeed="max">
        <route edges="E30 E22.488"/>
    </vehicle>
    <vehicle id="res_veh_int190" type="res_veh_int1_passenger" depart="5400.50" departLane="best" departSpeed="max">
        <route edges="E31 E30.558"/>
    </vehicle>
    <vehicle id="res_veh_int191" type="res_veh_int1_passenger" depart="5420.49" departLane="best" departSpeed="max">
        <route edges="E31 E18.410"/>
    </vehicle>
    <vehicle id="res_veh_int192" type="res_veh_int1_passenger" depart="5440.49" departLane="best" departSpeed="max">
        <route edges="E30 E22.488"/>
    </vehicle>
    <vehicle id="res_veh_int193" type="res_veh_int1_passenger" depart="5460.48" departLane="best" departSpeed="max">
        <route edges="E31 E18.410"/>
    </vehicle>
    <vehicle id="res_veh_int194" type="res_veh_int1_passenger" depart="5480.48" departLane="best" departSpeed="max">
        <route edges="E18 E22.488"/>
    </vehicle>
    <vehicle id="res_veh_int195" type="res_veh_int1_passenger" depart="5500.47" departLane="best" departSpeed="max">
        <route edges="E30 E22.488"/>
    </vehicle>
    <vehicle id="res_veh_int196" type="res_veh_int1_passenger" depart="5520.47" departLane="best" departSpeed="max">
        <route edges="E18 E31.622"/>
    </vehicle>
    <vehicle id="res_veh_int197" type="res_veh_int1_passenger" depart="5540.46" departLane="best" departSpeed="max">
        <route edges="E30 E31.622"/>
    </vehicle>
    <vehicle id="res_veh_int199" type="res_veh_int1_passenger" depart="5580.45" departLane="best" departSpeed="max">
        <route edges="E31 E31.622"/>
    </vehicle>
    <vehicle id="res_veh_int1100" type="res_veh_int1_passenger" depart="5600.44" departLane="best" departSpeed="max">
        <route edges="E31 E31.622"/>
    </vehicle>
    <vehicle id="res_veh_int1101" type="res_veh_int1_passenger" depart="5620.44" departLane="best" departSpeed="max">
        <route edges="E31 E18.410"/>
    </vehicle>
    <vehicle id="res_veh_int1104" type="res_veh_int1_passenger" depart="5680.42" departLane="best" departSpeed="max">
        <route edges="E30 E31.622"/>
    </vehicle>
    <vehicle id="res_veh_int1105" type="res_veh_int1_passenger" depart="5700.42" departLane="best" departSpeed="max">
        <route edges="E18 E31.622"/>
    </vehicle>
    <vehicle id="res_veh_int1106" type="res_veh_int1_passenger" depart="5720.41" departLane="best" departSpeed="max">
        <route edges="E30 E22.488"/>
    </vehicle>
    <vehicle id="res_veh_int1107" type="res_veh_int1_passenger" depart="5740.41" departLane="best" departSpeed="max">
        <route edges="E31 E31.622"/>
    </vehicle>
    <vehicle id="res_veh_int1108" type="res_veh_int1_passenger" depart="5760.40" departLane="best" departSpeed="max">
        <route edges="E30 E30.558"/>
    </vehicle>
    <vehicle id="res_veh_int1109" type="res_veh_int1_passenger" depart="5780.39" departLane="best" departSpeed="max">
        <route edges="E18 E22.488"/>
    </vehicle>
    <vehicle id="res_veh_int1110" type="res_veh_int1_passenger" depart="5800.39" departLane="best" departSpeed="max">
        <route edges="E31 E30.558"/>
    </vehicle>
    <vehicle id="res_veh_int1111" type="res_veh_int1_passenger" depart="5820.38" departLane="best" departSpeed="max">
        <route edges="E30 E30.558"/>
    </vehicle>
    <vehicle id="res_veh_int1113" type="res_veh_int1_passenger" depart="5860.37" departLane="best" departSpeed="max">
        <route edges="E30 E31.622"/>
    </vehicle>
    <vehicle id="res_veh_int1114" type="res_veh_int1_passenger" depart="5880.37" departLane="best" departSpeed="max">
        <route edges="E18 E31.622"/>
    </vehicle>
    <vehicle id="res_veh_int1115" type="res_veh_int1_passenger" depart="5900.36" departLane="best" departSpeed="max">
        <route edges="E18 E18.410"/>
    </vehicle>
    <vehicle id="res_veh_int1116" type="res_veh_int1_passenger" depart="5920.36" departLane="best" departSpeed="max">
        <route edges="E31 E30.558"/>
    </vehicle>
    <vehicle id="res_veh_int1117" type="res_veh_int1_passenger" depart="5940.35" departLane="best" departSpeed="max">
        <route edges="E18 E18.410"/>
    </vehicle>
    <vehicle id="res_veh_int1118" type="res_veh_int1_passenger" depart="5960.34" departLane="best" departSpeed="max">
        <route edges="E31 E18.410"/>
    </vehicle>
    <vehicle id="res_veh_int1119" type="res_veh_int1_passenger" depart="5980.34" departLane="best" departSpeed="max">
        <route edges="E31 E30.558"/>
    </vehicle>
    <vehicle id="res_veh_int1120" type="res_veh_int1_passenger" depart="6000.33" departLane="best" departSpeed="max">
        <route edges="E30 E30.558"/>
    </vehicle>
    <vehicle id="res_veh_int1121" type="res_veh_int1_passenger" depart="6020.33" departLane="best" departSpeed="max">
        <route edges="E30 E31.622"/>
    </vehicle>
    <vehicle id="res_veh_int1123" type="res_veh_int1_passenger" depart="6060.32" departLane="best" departSpeed="max">
        <route edges="E18 E22.488"/>
    </vehicle>
    <vehicle id="res_veh_int1125" type="res_veh_int1_passenger" depart="6100.31" departLane="best" departSpeed="max">
        <route edges="E18 E31.622"/>
    </vehicle>
    <vehicle id="res_veh_int1126" type="res_veh_int1_passenger" depart="6120.30" departLane="best" departSpeed="max">
        <route edges="E18 E22.488"/>
    </vehicle>
    <vehicle id="res_veh_int1127" type="res_veh_int1_passenger" depart="6140.29" departLane="best" departSpeed="max">
        <route edges="E31 E31.622"/>
    </vehicle>
    <vehicle id="res_veh_int1128" type="res_veh_int1_passenger" depart="6160.29" departLane="best" departSpeed="max">
        <route edges="E18 E18.410"/>
    </vehicle>