<?xml version="1.0" encoding="UTF-8"?>

<!-- generated on 2025-07-31 11:09:51.497742 by randomTrips.py v1_23_1+0000-676720d13f6
<configuration>
    <net-file value="osm.net.xml.gz"/>
    <weights-prefix value="random_edge_priority_interval_2"/>
    <output-trip-file value="osm.res_motorcycle.interval_2.trips.xml"/>
    <prefix value="res_motorcycle_int2"/>
    <trip-attributes value="departLane='best'"/>
    <fringe-start-attributes value="departSpeed='max'"/>
    <vehicle-class value="motorcycle"/>
    <vclass value="motorcycle"/>
    <remove-loops value="True"/>
    <validate value="True"/>
    <begin value="722.0"/>
    <end value="1082.0"/>
    <insertion-rate value="1500.0"/>
</configuration>
-->

<!-- generated on 2025-07-31 11:09:51 by Eclipse SUMO duarouter Version 1.23.1
<duarouterConfiguration xmlns:xsi="http://www.w3.org/2001/XMLSchema-instance" xsi:noNamespaceSchemaLocation="http://sumo.dlr.de/xsd/duarouterConfiguration.xsd">

    <input>
        <net-file value="osm.net.xml.gz"/>
        <route-files value="osm.res_motorcycle.interval_2.trips.xml"/>
    </input>

    <output>
        <output-file value="osm.res_motorcycle.interval_2.trips.xml.tmp"/>
        <alternatives-output value="NUL"/>
        <write-trips value="true"/>
    </output>

    <processing>
        <remove-loops value="true"/>
    </processing>

    <time>
        <begin value="722.0"/>
        <end value="1082.0"/>
    </time>

    <report>
        <no-warnings value="true"/>
        <ignore-errors value="true"/>
        <no-step-log value="true"/>
    </report>

</duarouterConfiguration>
-->

<routes xmlns:xsi="http://www.w3.org/2001/XMLSchema-instance" xsi:noNamespaceSchemaLocation="http://sumo.dlr.de/xsd/routes_file.xsd">
    <vType id="res_motorcycle_int2_motorcycle" vClass="motorcycle"/>
    <trip id="res_motorcycle_int20" type="res_motorcycle_int2_motorcycle" depart="722.00" departLane="best" departSpeed="max" from="E22" to="E18.410"/>
    <trip id="res_motorcycle_int21" type="res_motorcycle_int2_motorcycle" depart="724.40" departLane="best" departSpeed="max" from="E18" to="E18.410"/>
    <trip id="res_motorcycle_int22" type="res_motorcycle_int2_motorcycle" depart="726.80" departLane="best" departSpeed="max" from="E30" to="E30.558"/>
    <trip id="res_motorcycle_int24" type="res_motorcycle_int2_motorcycle" depart="731.60" departLane="best" departSpeed="max" from="E22" to="E18.410"/>
    <trip id="res_motorcycle_int26" type="res_motorcycle_int2_motorcycle" depart="736.40" departLane="best" departSpeed="max" from="E18" to="E18.410"/>
    <trip id="res_motorcycle_int27" type="res_motorcycle_int2_motorcycle" depart="738.80" departLane="best" departSpeed="max" from="E30" to="E30.558"/>
    <trip id="res_motorcycle_int210" type="res_motorcycle_int2_motorcycle" depart="746.00" departLane="best" departSpeed="max" from="E30" to="E30.558"/>
    <trip id="res_motorcycle_int211" type="res_motorcycle_int2_motorcycle" depart="748.40" departLane="best" departSpeed="max" from="E22" to="E18.410"/>
    <trip id="res_motorcycle_int213" type="res_motorcycle_int2_motorcycle" depart="753.20" departLane="best" departSpeed="max" from="E18" to="E18.410"/>
    <trip id="res_motorcycle_int214" type="res_motorcycle_int2_motorcycle" depart="755.60" departLane="best" departSpeed="max" from="E30" to="E30.558"/>
    <trip id="res_motorcycle_int215" type="res_motorcycle_int2_motorcycle" depart="758.00" departLane="best" departSpeed="max" from="E30" to="E30.558"/>
    <trip id="res_motorcycle_int217" type="res_motorcycle_int2_motorcycle" depart="762.80" departLane="best" departSpeed="max" from="E22" to="E30.558"/>
    <trip id="res_motorcycle_int218" type="res_motorcycle_int2_motorcycle" depart="765.20" departLane="best" departSpeed="max" from="E30" to="E30.558"/>
    <trip id="res_motorcycle_int219" type="res_motorcycle_int2_motorcycle" depart="767.60" departLane="best" departSpeed="max" from="E30" to="E30.558"/>
    <trip id="res_motorcycle_int221" type="res_motorcycle_int2_motorcycle" depart="772.40" departLane="best" departSpeed="max" from="E18" to="E22.488"/>
    <trip id="res_motorcycle_int222" type="res_motorcycle_int2_motorcycle" depart="774.80" departLane="best" departSpeed="max" from="E18" to="E18.410"/>
    <trip id="res_motorcycle_int223" type="res_motorcycle_int2_motorcycle" depart="777.20" departLane="best" departSpeed="max" from="E18" to="E22.488"/>
    <trip id="res_motorcycle_int224" type="res_motorcycle_int2_motorcycle" depart="779.60" departLane="best" departSpeed="max" from="E22" to="E22.488"/>
    <trip id="res_motorcycle_int225" type="res_motorcycle_int2_motorcycle" depart="782.00" departLane="best" departSpeed="max" from="E22" to="E18.410"/>
    <trip id="res_motorcycle_int226" type="res_motorcycle_int2_motorcycle" depart="784.40" departLane="best" departSpeed="max" from="E18" to="E31.622"/>
    <trip id="res_motorcycle_int227" type="res_motorcycle_int2_motorcycle" depart="786.80" departLane="best" departSpeed="max" from="E30" to="E30.558"/>
    <trip id="res_motorcycle_int229" type="res_motorcycle_int2_motorcycle" depart="791.60" departLane="best" departSpeed="max" from="E18" to="E22.488"/>
    <trip id="res_motorcycle_int230" type="res_motorcycle_int2_motorcycle" depart="794.00" departLane="best" departSpeed="max" from="E31" to="E30.558"/>
    <trip id="res_motorcycle_int231" type="res_motorcycle_int2_motorcycle" depart="796.40" departLane="best" departSpeed="max" from="E22" to="E30.558"/>
    <trip id="res_motorcycle_int232" type="res_motorcycle_int2_motorcycle" depart="798.80" departLane="best" departSpeed="max" from="E30" to="E31.622"/>
    <trip id="res_motorcycle_int233" type="res_motorcycle_int2_motorcycle" depart="801.20" departLane="best" departSpeed="max" from="E18" to="E18.410"/>
    <trip id="res_motorcycle_int234" type="res_motorcycle_int2_motorcycle" depart="803.60" departLane="best" departSpeed="max" from="E22" to="E22.488"/>
    <trip id="res_motorcycle_int235" type="res_motorcycle_int2_motorcycle" depart="806.00" departLane="best" departSpeed="max" from="E18" to="E31.622"/>
    <trip id="res_motorcycle_int236" type="res_motorcycle_int2_motorcycle" depart="808.40" departLane="best" departSpeed="max" from="E30" to="E22.488"/>
    <trip id="res_motorcycle_int237" type="res_motorcycle_int2_motorcycle" depart="810.80" departLane="best" departSpeed="max" from="E30" to="E22.488"/>
    <trip id="res_motorcycle_int239" type="res_motorcycle_int2_motorcycle" depart="815.60" departLane="best" departSpeed="max" from="E18" to="E18.410"/>
    <trip id="res_motorcycle_int240" type="res_motorcycle_int2_motorcycle" depart="818.00" departLane="best" departSpeed="max" from="E22" to="E22.488"/>
    <trip id="res_motorcycle_int242" type="res_motorcycle_int2_motorcycle" depart="822.80" departLane="best" departSpeed="max" from="E22" to="E18.410"/>
    <trip id="res_motorcycle_int243" type="res_motorcycle_int2_motorcycle" depart="825.20" departLane="best" departSpeed="max" from="E31" to="E30.558"/>
    <trip id="res_motorcycle_int244" type="res_motorcycle_int2_motorcycle" depart="827.60" departLane="best" departSpeed="max" from="E18" to="E18.410"/>
    <trip id="res_motorcycle_int246" type="res_motorcycle_int2_motorcycle" depart="832.40" departLane="best" departSpeed="max" from="E30" to="E22.488"/>
    <trip id="res_motorcycle_int247" type="res_motorcycle_int2_motorcycle" depart="834.80" departLane="best" departSpeed="max" from="E18" to="E22.488"/>
    <trip id="res_motorcycle_int248" type="res_motorcycle_int2_motorcycle" depart="837.20" departLane="best" departSpeed="max" from="E31" to="E30.558"/>
    <trip id="res_motorcycle_int249" type="res_motorcycle_int2_motorcycle" depart="839.60" departLane="best" departSpeed="max" from="E31" to="E31.622"/>
    <trip id="res_motorcycle_int251" type="res_motorcycle_int2_motorcycle" depart="844.40" departLane="best" departSpeed="max" from="E30" to="E30.558"/>
    <trip id="res_motorcycle_int253" type="res_motorcycle_int2_motorcycle" depart="849.20" departLane="best" departSpeed="max" from="E18" to="E22.488"/>
    <trip id="res_motorcycle_int255" type="res_motorcycle_int2_motorcycle" depart="854.00" departLane="best" departSpeed="max" from="E30" to="E22.488"/>
    <trip id="res_motorcycle_int256" type="res_motorcycle_int2_motorcycle" depart="856.40" departLane="best" departSpeed="max" from="E22" to="E18.410"/>
    <trip id="res_motorcycle_int257" type="res_motorcycle_int2_motorcycle" depart="858.80" departLane="best" departSpeed="max" from="E31" to="E31.622"/>
    <trip id="res_motorcycle_int259" type="res_motorcycle_int2_motorcycle" depart="863.60" departLane="best" departSpeed="max" from="E22" to="E18.410"/>
    <trip id="res_motorcycle_int260" type="res_motorcycle_int2_motorcycle" depart="866.00" departLane="best" departSpeed="max" from="E30" to="E30.558"/>
    <trip id="res_motorcycle_int261" type="res_motorcycle_int2_motorcycle" depart="868.40" departLane="best" departSpeed="max" from="E30" to="E30.558"/>
    <trip id="res_motorcycle_int262" type="res_motorcycle_int2_motorcycle" depart="870.80" departLane="best" departSpeed="max" from="E18" to="E22.488"/>
    <trip id="res_motorcycle_int263" type="res_motorcycle_int2_motorcycle" depart="873.20" departLane="best" departSpeed="max" from="E18" to="E31.622"/>
    <trip id="res_motorcycle_int264" type="res_motorcycle_int2_motorcycle" depart="875.60" departLane="best" departSpeed="max" from="E30" to="E31.622"/>
    <trip id="res_motorcycle_int265" type="res_motorcycle_int2_motorcycle" depart="878.00" departLane="best" departSpeed="max" from="E18" to="E18.410"/>
    <trip id="res_motorcycle_int266" type="res_motorcycle_int2_motorcycle" depart="880.40" departLane="best" departSpeed="max" from="E30" to="E31.622"/>
    <trip id="res_motorcycle_int267" type="res_motorcycle_int2_motorcycle" depart="882.80" departLane="best" departSpeed="max" from="E18" to="E22.488"/>
    <trip id="res_motorcycle_int268" type="res_motorcycle_int2_motorcycle" depart="885.20" departLane="best" departSpeed="max" from="E18" to="E31.622"/>
    <trip id="res_motorcycle_int270" type="res_motorcycle_int2_motorcycle" depart="890.00" departLane="best" departSpeed="max" from="E22" to="E30.558"/>
    <trip id="res_motorcycle_int271" type="res_motorcycle_int2_motorcycle" depart="892.40" departLane="best" departSpeed="max" from="E18" to="E31.622"/>
    <trip id="res_motorcycle_int272" type="res_motorcycle_int2_motorcycle" depart="894.80" departLane="best" departSpeed="max" from="E22" to="E18.410"/>
    <trip id="res_motorcycle_int273" type="res_motorcycle_int2_motorcycle" depart="897.20" departLane="best" departSpeed="max" from="E22" to="E30.558"/>
    <trip id="res_motorcycle_int274" type="res_motorcycle_int2_motorcycle" depart="899.60" departLane="best" departSpeed="max" from="E18" to="E22.488"/>
    <trip id="res_motorcycle_int275" type="res_motorcycle_int2_motorcycle" depart="902.00" departLane="best" departSpeed="max" from="E31" to="E30.558"/>
    <trip id="res_motorcycle_int276" type="res_motorcycle_int2_motorcycle" depart="904.40" departLane="best" departSpeed="max" from="E22" to="E30.558"/>
    <trip id="res_motorcycle_int277" type="res_motorcycle_int2_motorcycle" depart="906.80" departLane="best" departSpeed="max" from="E18" to="E18.410"/>
    <trip id="res_motorcycle_int278" type="res_motorcycle_int2_motorcycle" depart="909.20" departLane="best" departSpeed="max" from="E22" to="E30.558"/>
    <trip id="res_motorcycle_int279" type="res_motorcycle_int2_motorcycle" depart="911.60" departLane="best" departSpeed="max" from="E18" to="E18.410"/>
    <trip id="res_motorcycle_int281" type="res_motorcycle_int2_motorcycle" depart="916.40" departLane="best" departSpeed="max" from="E18" to="E31.622"/>
    <trip id="res_motorcycle_int284" type="res_motorcycle_int2_motorcycle" depart="923.60" departLane="best" departSpeed="max" from="E18" to="E18.410"/>
    <trip id="res_motorcycle_int285" type="res_motorcycle_int2_motorcycle" depart="926.00" departLane="best" departSpeed="max" from="E31" to="E30.558"/>
    <trip id="res_motorcycle_int288" type="res_motorcycle_int2_motorcycle" depart="933.20" departLane="best" departSpeed="max" from="E18" to="E22.488"/>
    <trip id="res_motorcycle_int289" type="res_motorcycle_int2_motorcycle" depart="935.60" departLane="best" departSpeed="max" from="E22" to="E22.488"/>
    <trip id="res_motorcycle_int290" type="res_motorcycle_int2_motorcycle" depart="938.00" departLane="best" departSpeed="max" from="E30" to="E30.558"/>
    <trip id="res_motorcycle_int291" type="res_motorcycle_int2_motorcycle" depart="940.40" departLane="best" departSpeed="max" from="E31" to="E18.410"/>
    <trip id="res_motorcycle_int292" type="res_motorcycle_int2_motorcycle" depart="942.80" departLane="best" departSpeed="max" from="E22" to="E22.488"/>
    <trip id="res_motorcycle_int294" type="res_motorcycle_int2_motorcycle" depart="947.60" departLane="best" departSpeed="max" from="E18" to="E22.488"/>
    <trip id="res_motorcycle_int295" type="res_motorcycle_int2_motorcycle" depart="950.00" departLane="best" departSpeed="max" from="E22" to="E22.488"/>
    <trip id="res_motorcycle_int296" type="res_motorcycle_int2_motorcycle" depart="952.40" departLane="best" departSpeed="max" from="E18" to="E31.622"/>
    <trip id="res_motorcycle_int298" type="res_motorcycle_int2_motorcycle" depart="957.20" departLane="best" departSpeed="max" from="E22" to="E18.410"/>
    <trip id="res_motorcycle_int299" type="res_motorcycle_int2_motorcycle" depart="959.60" departLane="best" departSpeed="max" from="E31" to="E31.622"/>
    <trip id="res_motorcycle_int2100" type="res_motorcycle_int2_motorcycle" depart="962.00" departLane="best" departSpeed="max" from="E31" to="E31.622"/>
    <trip id="res_motorcycle_int2102" type="res_motorcycle_int2_motorcycle" depart="966.80" departLane="best" departSpeed="max" from="E22" to="E18.410"/>
    <trip id="res_motorcycle_int2103" type="res_motorcycle_int2_motorcycle" depart="969.20" departLane="best" departSpeed="max" from="E22" to="E18.410"/>
    <trip id="res_motorcycle_int2105" type="res_motorcycle_int2_motorcycle" depart="974.00" departLane="best" departSpeed="max" from="E18" to="E31.622"/>
    <trip id="res_motorcycle_int2106" type="res_motorcycle_int2_motorcycle" depart="976.40" departLane="best" departSpeed="max" from="E22" to="E22.488"/>
    <trip id="res_motorcycle_int2107" type="res_motorcycle_int2_motorcycle" depart="978.80" departLane="best" departSpeed="max" from="E31" to="E31.622"/>
    <trip id="res_motorcycle_int2108" type="res_motorcycle_int2_motorcycle" depart="981.20" departLane="best" departSpeed="max" from="E22" to="E30.558"/>
    <trip id="res_motorcycle_int2109" type="res_motorcycle_int2_motorcycle" depart="983.60" departLane="best" departSpeed="max" from="E18" to="E22.488"/>
    <trip id="res_motorcycle_int2110" type="res_motorcycle_int2_motorcycle" depart="986.00" departLane="best" departSpeed="max" from="E31" to="E30.558"/>
    <trip id="res_motorcycle_int2111" type="res_motorcycle_int2_motorcycle" depart="988.40" departLane="best" departSpeed="max" from="E22" to="E30.558"/>
    <trip id="res_motorcycle_int2114" type="res_motorcycle_int2_motorcycle" depart="995.60" departLane="best" departSpeed="max" from="E18" to="E31.622"/>
    <trip id="res_motorcycle_int2115" type="res_motorcycle_int2_motorcycle" depart="998.00" departLane="best" departSpeed="max" from="E18" to="E18.410"/>
    <trip id="res_motorcycle_int2116" type="res_motorcycle_int2_motorcycle" depart="1000.40" departLane="best" departSpeed="max" from="E22" to="E30.558"/>
    <trip id="res_motorcycle_int2117" type="res_motorcycle_int2_motorcycle" depart="1002.80" departLane="best" departSpeed="max" from="E18" to="E18.410"/>
    <trip id="res_motorcycle_int2119" type="res_motorcycle_int2_motorcycle" depart="1007.60" departLane="best" departSpeed="max" from="E22" to="E30.558"/>
    <trip id="res_motorcycle_int2120" type="res_motorcycle_int2_motorcycle" depart="1010.00" departLane="best" departSpeed="max" from="E22" to="E30.558"/>
    <trip id="res_motorcycle_int2123" type="res_motorcycle_int2_motorcycle" depart="1017.20" departLane="best" departSpeed="max" from="E18" to="E22.488"/>
    <trip id="res_motorcycle_int2124" type="res_motorcycle_int2_motorcycle" depart="1019.60" departLane="best" departSpeed="max" from="E30" to="E22.488"/>
    <trip id="res_motorcycle_int2126" type="res_motorcycle_int2_motorcycle" depart="1024.40" departLane="best" departSpeed="max" from="E18" to="E22.488"/>
    <trip id="res_motorcycle_int2127" type="res_motorcycle_int2_motorcycle" depart="1026.80" departLane="best" departSpeed="max" from="E31" to="E31.622"/>
    <trip id="res_motorcycle_int2128" type="res_motorcycle_int2_motorcycle" depart="1029.20" departLane="best" departSpeed="max" from="E18" to="E18.410"/>
    <trip id="res_motorcycle_int2129" type="res_motorcycle_int2_motorcycle" depart="1031.60" departLane="best" departSpeed="max" from="E18" to="E31.622"/>
    <trip id="res_motorcycle_int2130" type="res_motorcycle_int2_motorcycle" depart="1034.00" departLane="best" departSpeed="max" from="E30" to="E31.622"/>
    <trip id="res_motorcycle_int2131" type="res_motorcycle_int2_motorcycle" depart="1036.40" departLane="best" departSpeed="max" from="E22" to="E18.410"/>
    <trip id="res_motorcycle_int2132" type="res_motorcycle_int2_motorcycle" depart="1038.80" departLane="best" departSpeed="max" from="E30" to="E30.558"/>
    <trip id="res_motorcycle_int2135" type="res_motorcycle_int2_motorcycle" depart="1046.00" departLane="best" departSpeed="max" from="E30" to="E22.488"/>
    <trip id="res_motorcycle_int2136" type="res_motorcycle_int2_motorcycle" depart="1048.40" departLane="best" departSpeed="max" from="E30" to="E31.622"/>
    <trip id="res_motorcycle_int2137" type="res_motorcycle_int2_motorcycle" depart="1050.80" departLane="best" departSpeed="max" from="E18" to="E18.410"/>
    <trip id="res_motorcycle_int2141" type="res_motorcycle_int2_motorcycle" depart="1060.40" departLane="best" departSpeed="max" from="E22" to="E22.488"/>
    <trip id="res_motorcycle_int2144" type="res_motorcycle_int2_motorcycle" depart="1067.60" departLane="best" departSpeed="max" from="E22" to="E22.488"/>
    <trip id="res_motorcycle_int2145" type="res_motorcycle_int2_motorcycle" depart="1070.00" departLane="best" departSpeed="max" from="E18" to="E31.622"/>
    <trip id="res_motorcycle_int2146" type="res_motorcycle_int2_motorcycle" depart="1072.40" departLane="best" departSpeed="max" from="E22" to="E22.488"/>
    <trip id="res_motorcycle_int2147" type="res_motorcycle_int2_motorcycle" depart="1074.80" departLane="best" departSpeed="max" from="E30" to="E30.558"/>
    <trip id="res_motorcycle_int2148" type="res_motorcycle_int2_motorcycle" depart="1077.20" departLane="best" departSpeed="max" from="E22" to="E18.410"/>
    <trip id="res_motorcycle_int2149" type="res_motorcycle_int2_motorcycle" depart="1079.60" departLane="best" departSpeed="max" from="E18" to="E31.622"/>
</routes>
