<?xml version="1.0" encoding="UTF-8"?>

<!-- generated on 2025-08-19 20:12:02 by Eclipse SUMO duarouter Version 1.24.0
<duarouterConfiguration xmlns:xsi="http://www.w3.org/2001/XMLSchema-instance" xsi:noNamespaceSchemaLocation="http://sumo.dlr.de/xsd/duarouterConfiguration.xsd">

    <input>
        <net-file value="osm.net.xml.gz"/>
        <route-files value="osm.res_veh.trips.xml"/>
    </input>

    <output>
        <output-file value="osm.res_veh.rou.xml"/>
    </output>

    <report>
        <ignore-errors value="true"/>
    </report>

</duarouterConfiguration>
-->

<routes xmlns:xsi="http://www.w3.org/2001/XMLSchema-instance" xsi:noNamespaceSchemaLocation="http://sumo.dlr.de/xsd/routes_file.xsd">
    <vType id="res_veh_int0_passenger" vClass="passenger"/>
    <vehicle id="res_veh_int00" type="res_veh_int0_passenger" depart="0.00" departLane="best" departSpeed="max">
        <route edges="E31 E18.410"/>
    </vehicle>
    <vehicle id="res_veh_int01" type="res_veh_int0_passenger" depart="12.00" departLane="best" departSpeed="max">
        <route edges="E31 E18.410"/>
    </vehicle>
    <vehicle id="res_veh_int02" type="res_veh_int0_passenger" depart="24.00" departLane="best" departSpeed="max">
        <route edges="E31 E30.558"/>
    </vehicle>
    <vehicle id="res_veh_int03" type="res_veh_int0_passenger" depart="36.00" departLane="best" departSpeed="max">
        <route edges="E31 E18.410"/>
    </vehicle>
    <vehicle id="res_veh_int04" type="res_veh_int0_passenger" depart="48.00" departLane="best" departSpeed="max">
        <route edges="E31 E18.410"/>
    </vehicle>
    <vehicle id="res_veh_int05" type="res_veh_int0_passenger" depart="60.00" departLane="best" departSpeed="max">
        <route edges="E31 E30.558"/>
    </vehicle>
    <vehicle id="res_veh_int06" type="res_veh_int0_passenger" depart="72.00" departLane="best" departSpeed="max">
        <route edges="E31 E18.410"/>
    </vehicle>
    <vehicle id="res_veh_int07" type="res_veh_int0_passenger" depart="84.00" departLane="best" departSpeed="max">
        <route edges="E31 E30.558"/>
    </vehicle>
    <vehicle id="res_veh_int08" type="res_veh_int0_passenger" depart="96.00" departLane="best" departSpeed="max">
        <route edges="E31 E30.558"/>
    </vehicle>
    <vehicle id="res_veh_int09" type="res_veh_int0_passenger" depart="108.00" departLane="best" departSpeed="max">
        <route edges="E31 E18.410"/>
    </vehicle>
    <vehicle id="res_veh_int010" type="res_veh_int0_passenger" depart="120.00" departLane="best" departSpeed="max">
        <route edges="E31 E30.558"/>
    </vehicle>
    <vehicle id="res_veh_int011" type="res_veh_int0_passenger" depart="132.00" departLane="best" departSpeed="max">
        <route edges="E31 E18.410"/>
    </vehicle>
    <vehicle id="res_veh_int013" type="res_veh_int0_passenger" depart="156.00" departLane="best" departSpeed="max">
        <route edges="E31 E18.410"/>
    </vehicle>
    <vehicle id="res_veh_int014" type="res_veh_int0_passenger" depart="168.00" departLane="best" departSpeed="max">
        <route edges="E31 E30.558"/>
    </vehicle>
    <vehicle id="res_veh_int015" type="res_veh_int0_passenger" depart="180.00" departLane="best" departSpeed="max">
        <route edges="E31 E30.558"/>
    </vehicle>
    <vehicle id="res_veh_int016" type="res_veh_int0_passenger" depart="192.00" departLane="best" departSpeed="max">
        <route edges="E31 E31.622"/>
    </vehicle>
    <vehicle id="res_veh_int017" type="res_veh_int0_passenger" depart="204.00" departLane="best" departSpeed="max">
        <route edges="E31 E30.558"/>
    </vehicle>
    <vehicle id="res_veh_int018" type="res_veh_int0_passenger" depart="216.00" departLane="best" departSpeed="max">
        <route edges="E31 E30.558"/>
    </vehicle>
    <vehicle id="res_veh_int019" type="res_veh_int0_passenger" depart="228.00" departLane="best" departSpeed="max">
        <route edges="E31 E30.558"/>
    </vehicle>
    <vehicle id="res_veh_int020" type="res_veh_int0_passenger" depart="240.00" departLane="best" departSpeed="max">
        <route edges="E31 E18.410"/>
    </vehicle>
    <vehicle id="res_veh_int022" type="res_veh_int0_passenger" depart="264.00" departLane="best" departSpeed="max">
        <route edges="E31 E18.410"/>
    </vehicle>
    <vehicle id="res_veh_int025" type="res_veh_int0_passenger" depart="300.00" departLane="best" departSpeed="max">
        <route edges="E31 E18.410"/>
    </vehicle>
    <vehicle id="res_veh_int026" type="res_veh_int0_passenger" depart="312.00" departLane="best" departSpeed="max">
        <route edges="E31 E31.622"/>
    </vehicle>
    <vehicle id="res_veh_int027" type="res_veh_int0_passenger" depart="324.00" departLane="best" departSpeed="max">
        <route edges="E31 E30.558"/>
    </vehicle>
    <vehicle id="res_veh_int028" type="res_veh_int0_passenger" depart="336.00" departLane="best" departSpeed="max">
        <route edges="E31 E30.558"/>
    </vehicle>
    <vType id="res_veh_int1_passenger" vClass="passenger"/>
    <vehicle id="res_veh_int10" type="res_veh_int1_passenger" depart="361.00" departLane="best" departSpeed="max">
        <route edges="E31 E18.410"/>
    </vehicle>
    <vehicle id="res_veh_int11" type="res_veh_int1_passenger" depart="373.00" departLane="best" departSpeed="max">
        <route edges="E22 E18.410"/>
    </vehicle>
    <vehicle id="res_veh_int12" type="res_veh_int1_passenger" depart="385.00" departLane="best" departSpeed="max">
        <route edges="E31 E30.558"/>
    </vehicle>
    <vehicle id="res_veh_int13" type="res_veh_int1_passenger" depart="397.00" departLane="best" departSpeed="max">
        <route edges="E31 E18.410"/>
    </vehicle>
    <vehicle id="res_veh_int14" type="res_veh_int1_passenger" depart="409.00" departLane="best" departSpeed="max">
        <route edges="E22 E18.410"/>
    </vehicle>
    <vehicle id="res_veh_int15" type="res_veh_int1_passenger" depart="421.00" departLane="best" departSpeed="max">
        <route edges="E22 E30.558"/>
    </vehicle>
    <vehicle id="res_veh_int16" type="res_veh_int1_passenger" depart="433.00" departLane="best" departSpeed="max">
        <route edges="E22 E18.410"/>
    </vehicle>
    <vehicle id="res_veh_int17" type="res_veh_int1_passenger" depart="445.00" departLane="best" departSpeed="max">
        <route edges="E31 E30.558"/>
    </vehicle>
    <vehicle id="res_veh_int18" type="res_veh_int1_passenger" depart="457.00" departLane="best" departSpeed="max">
        <route edges="E22 E30.558"/>
    </vehicle>
    <vehicle id="res_veh_int19" type="res_veh_int1_passenger" depart="469.00" departLane="best" departSpeed="max">
        <route edges="E31 E18.410"/>
    </vehicle>
    <vehicle id="res_veh_int110" type="res_veh_int1_passenger" depart="481.00" departLane="best" departSpeed="max">
        <route edges="E31 E30.558"/>
    </vehicle>
    <vehicle id="res_veh_int111" type="res_veh_int1_passenger" depart="493.00" departLane="best" departSpeed="max">
        <route edges="E22 E18.410"/>
    </vehicle>
    <vehicle id="res_veh_int113" type="res_veh_int1_passenger" depart="517.00" departLane="best" departSpeed="max">
        <route edges="E22 E18.410"/>
    </vehicle>
    <vehicle id="res_veh_int114" type="res_veh_int1_passenger" depart="529.00" departLane="best" departSpeed="max">
        <route edges="E31 E30.558"/>
    </vehicle>
    <vehicle id="res_veh_int115" type="res_veh_int1_passenger" depart="541.00" departLane="best" departSpeed="max">
        <route edges="E31 E30.558"/>
    </vehicle>
    <vehicle id="res_veh_int117" type="res_veh_int1_passenger" depart="565.00" departLane="best" departSpeed="max">
        <route edges="E22 E30.558"/>
    </vehicle>
    <vehicle id="res_veh_int118" type="res_veh_int1_passenger" depart="577.00" departLane="best" departSpeed="max">
        <route edges="E31 E30.558"/>
    </vehicle>
    <vehicle id="res_veh_int119" type="res_veh_int1_passenger" depart="589.00" departLane="best" departSpeed="max">
        <route edges="E31 E30.558"/>
    </vehicle>
    <vehicle id="res_veh_int120" type="res_veh_int1_passenger" depart="601.00" departLane="best" departSpeed="max">
        <route edges="E31 E18.410"/>
    </vehicle>
    <vehicle id="res_veh_int121" type="res_veh_int1_passenger" depart="613.00" departLane="best" departSpeed="max">
        <route edges="E22 E22.488"/>
    </vehicle>
    <vehicle id="res_veh_int122" type="res_veh_int1_passenger" depart="625.00" departLane="best" departSpeed="max">
        <route edges="E22 E18.410"/>
    </vehicle>
    <vehicle id="res_veh_int123" type="res_veh_int1_passenger" depart="637.00" departLane="best" departSpeed="max">
        <route edges="E22 E22.488"/>
    </vehicle>
    <vehicle id="res_veh_int125" type="res_veh_int1_passenger" depart="661.00" departLane="best" departSpeed="max">
        <route edges="E22 E18.410"/>
    </vehicle>
    <vehicle id="res_veh_int127" type="res_veh_int1_passenger" depart="685.00" departLane="best" departSpeed="max">
        <route edges="E31 E30.558"/>
    </vehicle>
    <vehicle id="res_veh_int128" type="res_veh_int1_passenger" depart="697.00" departLane="best" departSpeed="max">
        <route edges="E22 E30.558"/>
    </vehicle>
    <vehicle id="res_veh_int129" type="res_veh_int1_passenger" depart="709.00" departLane="best" departSpeed="max">
        <route edges="E22 E22.488"/>
    </vehicle>
    <vType id="res_veh_int2_passenger" vClass="passenger"/>
    <vehicle id="res_veh_int20" type="res_veh_int2_passenger" depart="722.00" departLane="best" departSpeed="max">
        <route edges="E31 E18.410"/>
    </vehicle>
    <vehicle id="res_veh_int21" type="res_veh_int2_passenger" depart="734.00" departLane="best" departSpeed="max">
        <route edges="E31 E18.410"/>
    </vehicle>
    <vehicle id="res_veh_int22" type="res_veh_int2_passenger" depart="746.00" departLane="best" departSpeed="max">
        <route edges="E31 E30.558"/>
    </vehicle>
    <vehicle id="res_veh_int23" type="res_veh_int2_passenger" depart="758.00" departLane="best" departSpeed="max">
        <route edges="E31 E18.410"/>
    </vehicle>
    <vehicle id="res_veh_int24" type="res_veh_int2_passenger" depart="770.00" departLane="best" departSpeed="max">
        <route edges="E31 E18.410"/>
    </vehicle>
    <vehicle id="res_veh_int25" type="res_veh_int2_passenger" depart="782.00" departLane="best" departSpeed="max">
        <route edges="E31 E30.558"/>
    </vehicle>
    <vehicle id="res_veh_int26" type="res_veh_int2_passenger" depart="794.00" departLane="best" departSpeed="max">
        <route edges="E31 E18.410"/>
    </vehicle>
    <vehicle id="res_veh_int27" type="res_veh_int2_passenger" depart="806.00" departLane="best" departSpeed="max">
        <route edges="E31 E30.558"/>
    </vehicle>
    <vehicle id="res_veh_int28" type="res_veh_int2_passenger" depart="818.00" departLane="best" departSpeed="max">
        <route edges="E31 E30.558"/>
    </vehicle>
    <vehicle id="res_veh_int29" type="res_veh_int2_passenger" depart="830.00" departLane="best" departSpeed="max">
        <route edges="E31 E18.410"/>
    </vehicle>
    <vehicle id="res_veh_int210" type="res_veh_int2_passenger" depart="842.00" departLane="best" departSpeed="max">
        <route edges="E31 E30.558"/>
    </vehicle>
    <vehicle id="res_veh_int211" type="res_veh_int2_passenger" depart="854.00" departLane="best" departSpeed="max">
        <route edges="E31 E18.410"/>
    </vehicle>
    <vehicle id="res_veh_int213" type="res_veh_int2_passenger" depart="878.00" departLane="best" departSpeed="max">
        <route edges="E31 E18.410"/>
    </vehicle>
    <vehicle id="res_veh_int214" type="res_veh_int2_passenger" depart="890.00" departLane="best" departSpeed="max">
        <route edges="E31 E30.558"/>
    </vehicle>
    <vehicle id="res_veh_int215" type="res_veh_int2_passenger" depart="902.00" departLane="best" departSpeed="max">
        <route edges="E31 E30.558"/>
    </vehicle>
    <vehicle id="res_veh_int216" type="res_veh_int2_passenger" depart="914.00" departLane="best" departSpeed="max">
        <route edges="E31 E31.622"/>
    </vehicle>
    <vehicle id="res_veh_int217" type="res_veh_int2_passenger" depart="926.00" departLane="best" departSpeed="max">
        <route edges="E31 E30.558"/>
    </vehicle>
    <vehicle id="res_veh_int218" type="res_veh_int2_passenger" depart="938.00" departLane="best" departSpeed="max">
        <route edges="E31 E30.558"/>
    </vehicle>
    <vehicle id="res_veh_int219" type="res_veh_int2_passenger" depart="950.00" departLane="best" departSpeed="max">
        <route edges="E31 E30.558"/>
    </vehicle>
    <vehicle id="res_veh_int220" type="res_veh_int2_passenger" depart="962.00" departLane="best" departSpeed="max">
        <route edges="E31 E18.410"/>
    </vehicle>
    <vehicle id="res_veh_int222" type="res_veh_int2_passenger" depart="986.00" departLane="best" departSpeed="max">
        <route edges="E31 E18.410"/>
    </vehicle>
    <vehicle id="res_veh_int225" type="res_veh_int2_passenger" depart="1022.00" departLane="best" departSpeed="max">
        <route edges="E31 E18.410"/>
    </vehicle>
    <vehicle id="res_veh_int226" type="res_veh_int2_passenger" depart="1034.00" departLane="best" departSpeed="max">
        <route edges="E31 E31.622"/>
    </vehicle>
    <vehicle id="res_veh_int227" type="res_veh_int2_passenger" depart="1046.00" departLane="best" departSpeed="max">
        <route edges="E31 E30.558"/>
    </vehicle>
    <vehicle id="res_veh_int228" type="res_veh_int2_passenger" depart="1058.00" departLane="best" departSpeed="max">
        <route edges="E31 E30.558"/>
    </vehicle>
    <vType id="res_veh_int3_passenger" vClass="passenger"/>
    <vehicle id="res_veh_int30" type="res_veh_int3_passenger" depart="1083.00" departLane="best" departSpeed="max">
        <route edges="E22 E18.410"/>
    </vehicle>
    <vehicle id="res_veh_int31" type="res_veh_int3_passenger" depart="1095.00" departLane="best" departSpeed="max">
        <route edges="E18 E18.410"/>
    </vehicle>
    <vehicle id="res_veh_int32" type="res_veh_int3_passenger" depart="1107.00" departLane="best" departSpeed="max">
        <route edges="E31 E30.558"/>
    </vehicle>
    <vehicle id="res_veh_int33" type="res_veh_int3_passenger" depart="1119.00" departLane="best" departSpeed="max">
        <route edges="E31 E18.410"/>
    </vehicle>
    <vehicle id="res_veh_int34" type="res_veh_int3_passenger" depart="1131.00" departLane="best" departSpeed="max">
        <route edges="E18 E18.410"/>
    </vehicle>
    <vehicle id="res_veh_int36" type="res_veh_int3_passenger" depart="1155.00" departLane="best" departSpeed="max">
        <route edges="E18 E18.410"/>
    </vehicle>
    <vehicle id="res_veh_int37" type="res_veh_int3_passenger" depart="1167.00" departLane="best" departSpeed="max">
        <route edges="E22 E30.558"/>
    </vehicle>
    <vehicle id="res_veh_int39" type="res_veh_int3_passenger" depart="1191.00" departLane="best" departSpeed="max">
        <route edges="E31 E18.410"/>
    </vehicle>
    <vehicle id="res_veh_int310" type="res_veh_int3_passenger" depart="1203.00" departLane="best" departSpeed="max">
        <route edges="E31 E30.558"/>
    </vehicle>
    <vehicle id="res_veh_int311" type="res_veh_int3_passenger" depart="1215.00" departLane="best" departSpeed="max">
        <route edges="E18 E18.410"/>
    </vehicle>
    <vehicle id="res_veh_int313" type="res_veh_int3_passenger" depart="1239.00" departLane="best" departSpeed="max">
        <route edges="E18 E18.410"/>
    </vehicle>
    <vehicle id="res_veh_int314" type="res_veh_int3_passenger" depart="1251.00" departLane="best" departSpeed="max">
        <route edges="E31 E30.558"/>
    </vehicle>
    <vehicle id="res_veh_int315" type="res_veh_int3_passenger" depart="1263.00" departLane="best" departSpeed="max">
        <route edges="E31 E30.558"/>
    </vehicle>
    <vehicle id="res_veh_int318" type="res_veh_int3_passenger" depart="1299.00" departLane="best" departSpeed="max">
        <route edges="E31 E30.558"/>
    </vehicle>
    <vehicle id="res_veh_int319" type="res_veh_int3_passenger" depart="1311.00" departLane="best" departSpeed="max">
        <route edges="E31 E30.558"/>
    </vehicle>
    <vehicle id="res_veh_int320" type="res_veh_int3_passenger" depart="1323.00" departLane="best" departSpeed="max">
        <route edges="E31 E18.410"/>
    </vehicle>
    <vehicle id="res_veh_int321" type="res_veh_int3_passenger" depart="1335.00" departLane="best" departSpeed="max">
        <route edges="E18 E22.488"/>
    </vehicle>
    <vehicle id="res_veh_int322" type="res_veh_int3_passenger" depart="1347.00" departLane="best" departSpeed="max">
        <route edges="E18 E18.410"/>
    </vehicle>
    <vehicle id="res_veh_int323" type="res_veh_int3_passenger" depart="1359.00" departLane="best" departSpeed="max">
        <route edges="E18 E22.488"/>
    </vehicle>
    <vehicle id="res_veh_int324" type="res_veh_int3_passenger" depart="1371.00" departLane="best" departSpeed="max">
        <route edges="E22 E22.488"/>
    </vehicle>
    <vehicle id="res_veh_int325" type="res_veh_int3_passenger" depart="1383.00" departLane="best" departSpeed="max">
        <route edges="E18 E18.410"/>
    </vehicle>
    <vehicle id="res_veh_int326" type="res_veh_int3_passenger" depart="1395.00" departLane="best" departSpeed="max">
        <route edges="E18 E31.622"/>
    </vehicle>
    <vehicle id="res_veh_int327" type="res_veh_int3_passenger" depart="1407.00" departLane="best" departSpeed="max">
        <route edges="E22 E30.558"/>
    </vehicle>
    <vehicle id="res_veh_int329" type="res_veh_int3_passenger" depart="1431.00" departLane="best" departSpeed="max">
        <route edges="E18 E22.488"/>
    </vehicle>
    <vType id="res_veh_int4_passenger" vClass="passenger"/>
    <vehicle id="res_veh_int41" type="res_veh_int4_passenger" depart="1456.00" departLane="best" departSpeed="max">
        <route edges="E22 E18.410"/>
    </vehicle>
    <vehicle id="res_veh_int42" type="res_veh_int4_passenger" depart="1468.00" departLane="best" departSpeed="max">
        <route edges="E31 E30.558"/>
    </vehicle>
    <vehicle id="res_veh_int43" type="res_veh_int4_passenger" depart="1480.00" departLane="best" departSpeed="max">
        <route edges="E31 E18.410"/>
    </vehicle>
    <vehicle id="res_veh_int44" type="res_veh_int4_passenger" depart="1492.00" departLane="best" departSpeed="max">
        <route edges="E22 E18.410"/>
    </vehicle>
    <vehicle id="res_veh_int45" type="res_veh_int4_passenger" depart="1504.00" departLane="best" departSpeed="max">
        <route edges="E22 E30.558"/>
    </vehicle>
    <vehicle id="res_veh_int46" type="res_veh_int4_passenger" depart="1516.00" departLane="best" departSpeed="max">
        <route edges="E18 E18.410"/>
    </vehicle>
    <vehicle id="res_veh_int47" type="res_veh_int4_passenger" depart="1528.00" departLane="best" departSpeed="max">
        <route edges="E30 E30.558"/>
    </vehicle>
    <vehicle id="res_veh_int48" type="res_veh_int4_passenger" depart="1540.00" departLane="best" departSpeed="max">
        <route edges="E22 E30.558"/>
    </vehicle>
    <vehicle id="res_veh_int49" type="res_veh_int4_passenger" depart="1552.00" departLane="best" departSpeed="max">
        <route edges="E31 E18.410"/>
    </vehicle>
    <vehicle id="res_veh_int410" type="res_veh_int4_passenger" depart="1564.00" departLane="best" departSpeed="max">
        <route edges="E31 E30.558"/>
    </vehicle>
    <vehicle id="res_veh_int411" type="res_veh_int4_passenger" depart="1576.00" departLane="best" departSpeed="max">
        <route edges="E22 E18.410"/>
    </vehicle>
    <vehicle id="res_veh_int413" type="res_veh_int4_passenger" depart="1600.00" departLane="best" departSpeed="max">
        <route edges="E18 E18.410"/>
    </vehicle>
    <vehicle id="res_veh_int414" type="res_veh_int4_passenger" depart="1612.00" departLane="best" departSpeed="max">
        <route edges="E31 E30.558"/>
    </vehicle>
    <vehicle id="res_veh_int415" type="res_veh_int4_passenger" depart="1624.00" departLane="best" departSpeed="max">
        <route edges="E31 E30.558"/>
    </vehicle>
    <vehicle id="res_veh_int416" type="res_veh_int4_passenger" depart="1636.00" departLane="best" departSpeed="max">
        <route edges="E30 E31.622"/>
    </vehicle>
    <vehicle id="res_veh_int417" type="res_veh_int4_passenger" depart="1648.00" departLane="best" departSpeed="max">
        <route edges="E22 E30.558"/>
    </vehicle>
    <vehicle id="res_veh_int418" type="res_veh_int4_passenger" depart="1660.00" departLane="best" departSpeed="max">
        <route edges="E31 E30.558"/>
    </vehicle>
    <vehicle id="res_veh_int419" type="res_veh_int4_passenger" depart="1672.00" departLane="best" departSpeed="max">
        <route edges="E31 E30.558"/>
    </vehicle>
    <vehicle id="res_veh_int421" type="res_veh_int4_passenger" depart="1696.00" departLane="best" departSpeed="max">
        <route edges="E22 E22.488"/>
    </vehicle>
    <vehicle id="res_veh_int422" type="res_veh_int4_passenger" depart="1708.00" departLane="best" departSpeed="max">
        <route edges="E18 E18.410"/>
    </vehicle>
    <vehicle id="res_veh_int423" type="res_veh_int4_passenger" depart="1720.00" departLane="best" departSpeed="max">
        <route edges="E18 E22.488"/>
    </vehicle>
    <vehicle id="res_veh_int424" type="res_veh_int4_passenger" depart="1732.00" departLane="best" departSpeed="max">
        <route edges="E30 E22.488"/>
    </vehicle>
    <vehicle id="res_veh_int425" type="res_veh_int4_passenger" depart="1744.00" departLane="best" departSpeed="max">
        <route edges="E22 E18.410"/>
    </vehicle>
    <vehicle id="res_veh_int427" type="res_veh_int4_passenger" depart="1768.00" departLane="best" departSpeed="max">
        <route edges="E30 E30.558"/>
    </vehicle>
    <vehicle id="res_veh_int428" type="res_veh_int4_passenger" depart="1780.00" departLane="best" departSpeed="max">
        <route edges="E22 E30.558"/>
    </vehicle>
    <vehicle id="res_veh_int429" type="res_veh_int4_passenger" depart="1792.00" departLane="best" departSpeed="max">
        <route edges="E22 E22.488"/>
    </vehicle>
    <vType id="res_veh_int5_passenger" vClass="passenger"/>
    <vehicle id="res_veh_int51" type="res_veh_int5_passenger" depart="1817.00" departLane="best" departSpeed="max">
        <route edges="E18 E18.410"/>
    </vehicle>
    <vehicle id="res_veh_int52" type="res_veh_int5_passenger" depart="1829.00" departLane="best" departSpeed="max">
        <route edges="E30 E30.558"/>
    </vehicle>
    <vehicle id="res_veh_int53" type="res_veh_int5_passenger" depart="1841.00" departLane="best" departSpeed="max">
        <route edges="E31 E18.410"/>
    </vehicle>
    <vehicle id="res_veh_int54" type="res_veh_int5_passenger" depart="1853.00" departLane="best" departSpeed="max">
        <route edges="E22 E18.410"/>
    </vehicle>
    <vehicle id="res_veh_int56" type="res_veh_int5_passenger" depart="1877.00" departLane="best" departSpeed="max">
        <route edges="E18 E18.410"/>
    </vehicle>
    <vehicle id="res_veh_int57" type="res_veh_int5_passenger" depart="1889.00" departLane="best" departSpeed="max">
        <route edges="E30 E30.558"/>
    </vehicle>
    <vehicle id="res_veh_int59" type="res_veh_int5_passenger" depart="1913.00" departLane="best" departSpeed="max">
        <route edges="E31 E18.410"/>
    </vehicle>
    <vehicle id="res_veh_int510" type="res_veh_int5_passenger" depart="1925.00" departLane="best" departSpeed="max">
        <route edges="E31 E30.558"/>
    </vehicle>
    <vehicle id="res_veh_int511" type="res_veh_int5_passenger" depart="1937.00" departLane="best" departSpeed="max">
        <route edges="E22 E18.410"/>
    </vehicle>
    <vehicle id="res_veh_int513" type="res_veh_int5_passenger" depart="1961.00" departLane="best" departSpeed="max">
        <route edges="E18 E18.410"/>
    </vehicle>
    <vehicle id="res_veh_int514" type="res_veh_int5_passenger" depart="1973.00" departLane="best" departSpeed="max">
        <route edges="E31 E30.558"/>
    </vehicle>
    <vehicle id="res_veh_int515" type="res_veh_int5_passenger" depart="1985.00" departLane="best" departSpeed="max">
        <route edges="E31 E30.558"/>
    </vehicle>
    <vehicle id="res_veh_int517" type="res_veh_int5_passenger" depart="2009.00" departLane="best" departSpeed="max">
        <route edges="E22 E30.558"/>
    </vehicle>
    <vehicle id="res_veh_int518" type="res_veh_int5_passenger" depart="2021.00" departLane="best" departSpeed="max">
        <route edges="E31 E30.558"/>
    </vehicle>
    <vehicle id="res_veh_int519" type="res_veh_int5_passenger" depart="2033.00" departLane="best" departSpeed="max">
        <route edges="E31 E30.558"/>
    </vehicle>
    <vehicle id="res_veh_int521" type="res_veh_int5_passenger" depart="2057.00" departLane="best" departSpeed="max">
        <route edges="E18 E22.488"/>
    </vehicle>
    <vehicle id="res_veh_int522" type="res_veh_int5_passenger" depart="2069.00" departLane="best" departSpeed="max">
        <route edges="E18 E18.410"/>
    </vehicle>
    <vehicle id="res_veh_int523" type="res_veh_int5_passenger" depart="2081.00" departLane="best" departSpeed="max">
        <route edges="E18 E22.488"/>
    </vehicle>
    <vehicle id="res_veh_int524" type="res_veh_int5_passenger" depart="2093.00" departLane="best" departSpeed="max">
        <route edges="E30 E22.488"/>
    </vehicle>
    <vehicle id="res_veh_int525" type="res_veh_int5_passenger" depart="2105.00" departLane="best" departSpeed="max">
        <route edges="E22 E18.410"/>
    </vehicle>
    <vehicle id="res_veh_int526" type="res_veh_int5_passenger" depart="2117.00" departLane="best" departSpeed="max">
        <route edges="E18 E31.622"/>
    </vehicle>
    <vehicle id="res_veh_int527" type="res_veh_int5_passenger" depart="2129.00" departLane="best" departSpeed="max">
        <route edges="E30 E30.558"/>
    </vehicle>
    <vehicle id="res_veh_int529" type="res_veh_int5_passenger" depart="2153.00" departLane="best" departSpeed="max">
        <route edges="E18 E22.488"/>
    </vehicle>
    <vType id="res_veh_int6_passenger" vClass="passenger"/>
    <vehicle id="res_veh_int60" type="res_veh_int6_passenger" depart="2166.00" departLane="best" departSpeed="max">
        <route edges="E31 E18.410"/>
    </vehicle>
    <vehicle id="res_veh_int61" type="res_veh_int6_passenger" depart="2178.00" departLane="best" departSpeed="max">
        <route edges="E22 E18.410"/>
    </vehicle>
    <vehicle id="res_veh_int62" type="res_veh_int6_passenger" depart="2190.00" departLane="best" departSpeed="max">
        <route edges="E31 E30.558"/>
    </vehicle>
    <vehicle id="res_veh_int63" type="res_veh_int6_passenger" depart="2202.00" departLane="best" departSpeed="max">
        <route edges="E31 E18.410"/>
    </vehicle>
    <vehicle id="res_veh_int65" type="res_veh_int6_passenger" depart="2226.00" departLane="best" departSpeed="max">
        <route edges="E22 E30.558"/>
    </vehicle>
    <vehicle id="res_veh_int66" type="res_veh_int6_passenger" depart="2238.00" departLane="best" departSpeed="max">
        <route edges="E18 E18.410"/>
    </vehicle>
    <vehicle id="res_veh_int67" type="res_veh_int6_passenger" depart="2250.00" departLane="best" departSpeed="max">
        <route edges="E31 E30.558"/>
    </vehicle>
    <vehicle id="res_veh_int68" type="res_veh_int6_passenger" depart="2262.00" departLane="best" departSpeed="max">
        <route edges="E22 E30.558"/>
    </vehicle>
    <vehicle id="res_veh_int69" type="res_veh_int6_passenger" depart="2274.00" departLane="best" departSpeed="max">
        <route edges="E31 E18.410"/>
    </vehicle>
    <vehicle id="res_veh_int610" type="res_veh_int6_passenger" depart="2286.00" departLane="best" departSpeed="max">
        <route edges="E31 E30.558"/>
    </vehicle>
    <vehicle id="res_veh_int611" type="res_veh_int6_passenger" depart="2298.00" departLane="best" departSpeed="max">
        <route edges="E22 E18.410"/>
    </vehicle>
    <vehicle id="res_veh_int613" type="res_veh_int6_passenger" depart="2322.00" departLane="best" departSpeed="max">
        <route edges="E22 E18.410"/>
    </vehicle>
    <vehicle id="res_veh_int614" type="res_veh_int6_passenger" depart="2334.00" departLane="best" departSpeed="max">
        <route edges="E31 E30.558"/>
    </vehicle>
    <vehicle id="res_veh_int615" type="res_veh_int6_passenger" depart="2346.00" departLane="best" departSpeed="max">
        <route edges="E31 E30.558"/>
    </vehicle>
    <vehicle id="res_veh_int616" type="res_veh_int6_passenger" depart="2358.00" departLane="best" departSpeed="max">
        <route edges="E30 E31.622"/>
    </vehicle>
    <vehicle id="res_veh_int617" type="res_veh_int6_passenger" depart="2370.00" departLane="best" departSpeed="max">
        <route edges="E30 E30.558"/>
    </vehicle>
    <vehicle id="res_veh_int618" type="res_veh_int6_passenger" depart="2382.00" departLane="best" departSpeed="max">
        <route edges="E31 E30.558"/>
    </vehicle>
    <vehicle id="res_veh_int619" type="res_veh_int6_passenger" depart="2394.00" departLane="best" departSpeed="max">
        <route edges="E31 E30.558"/>
    </vehicle>
    <vehicle id="res_veh_int620" type="res_veh_int6_passenger" depart="2406.00" departLane="best" departSpeed="max">
        <route edges="E31 E18.410"/>
    </vehicle>
    <vehicle id="res_veh_int621" type="res_veh_int6_passenger" depart="2418.00" departLane="best" departSpeed="max">
        <route edges="E22 E22.488"/>
    </vehicle>
    <vehicle id="res_veh_int622" type="res_veh_int6_passenger" depart="2430.00" departLane="best" departSpeed="max">
        <route edges="E18 E18.410"/>
    </vehicle>
    <vehicle id="res_veh_int623" type="res_veh_int6_passenger" depart="2442.00" departLane="best" departSpeed="max">
        <route edges="E22 E22.488"/>
    </vehicle>