<?xml version="1.0" encoding="UTF-8"?>

<!-- generated on 2025-07-31 11:10:23.965001 by randomTrips.py v1_23_1+0000-676720d13f6
<configuration>
    <net-file value="osm.net.xml.gz"/>
    <weights-prefix value="random_edge_priority_interval_8"/>
    <output-trip-file value="osm.res_truck.interval_8.trips.xml"/>
    <prefix value="res_truck_int8"/>
    <trip-attributes value="departLane='best'"/>
    <fringe-start-attributes value="departSpeed='max'"/>
    <vehicle-class value="truck"/>
    <vclass value="truck"/>
    <remove-loops value="True"/>
    <validate value="True"/>
    <begin value="2888.0"/>
    <end value="3248.0"/>
    <insertion-rate value="100.0"/>
</configuration>
-->

<!-- generated on 2025-07-31 11:10:23 by Eclipse SUMO duarouter Version 1.23.1
<duarouterConfiguration xmlns:xsi="http://www.w3.org/2001/XMLSchema-instance" xsi:noNamespaceSchemaLocation="http://sumo.dlr.de/xsd/duarouterConfiguration.xsd">

    <input>
        <net-file value="osm.net.xml.gz"/>
        <route-files value="osm.res_truck.interval_8.trips.xml"/>
    </input>

    <output>
        <output-file value="osm.res_truck.interval_8.trips.xml.tmp"/>
        <alternatives-output value="NUL"/>
        <write-trips value="true"/>
    </output>

    <processing>
        <remove-loops value="true"/>
    </processing>

    <time>
        <begin value="2888.0"/>
        <end value="3248.0"/>
    </time>

    <report>
        <no-warnings value="true"/>
        <ignore-errors value="true"/>
        <no-step-log value="true"/>
    </report>

</duarouterConfiguration>
-->

<routes xmlns:xsi="http://www.w3.org/2001/XMLSchema-instance" xsi:noNamespaceSchemaLocation="http://sumo.dlr.de/xsd/routes_file.xsd">
    <vType id="res_truck_int8_truck" vClass="truck"/>
    <trip id="res_truck_int81" type="res_truck_int8_truck" depart="2924.00" departLane="best" departSpeed="max" from="E22" to="E18.410"/>
    <trip id="res_truck_int82" type="res_truck_int8_truck" depart="2960.00" departLane="best" departSpeed="max" from="E30" to="E30.558"/>
    <trip id="res_truck_int83" type="res_truck_int8_truck" depart="2996.00" departLane="best" departSpeed="max" from="E31" to="E18.410"/>
    <trip id="res_truck_int84" type="res_truck_int8_truck" depart="3032.00" departLane="best" departSpeed="max" from="E22" to="E18.410"/>
    <trip id="res_truck_int85" type="res_truck_int8_truck" depart="3068.00" departLane="best" departSpeed="max" from="E22" to="E30.558"/>
    <trip id="res_truck_int86" type="res_truck_int8_truck" depart="3104.00" departLane="best" departSpeed="max" from="E18" to="E18.410"/>
    <trip id="res_truck_int87" type="res_truck_int8_truck" depart="3140.00" departLane="best" departSpeed="max" from="E30" to="E30.558"/>
    <trip id="res_truck_int88" type="res_truck_int8_truck" depart="3176.00" departLane="best" departSpeed="max" from="E22" to="E30.558"/>
    <trip id="res_truck_int89" type="res_truck_int8_truck" depart="3212.00" departLane="best" departSpeed="max" from="E31" to="E18.410"/>
</routes>
