<?xml version="1.0" encoding="UTF-8"?>

<!-- generated on 2025-07-31 11:10:03.744732 by randomTrips.py v1_23_1+0000-676720d13f6
<configuration>
    <net-file value="osm.net.xml.gz"/>
    <weights-prefix value="random_edge_priority_interval_1"/>
    <output-trip-file value="osm.res_veh.interval_1.trips.xml"/>
    <prefix value="res_veh_int1"/>
    <trip-attributes value="departLane='best'"/>
    <fringe-start-attributes value="departSpeed='max'"/>
    <vehicle-class value="passenger"/>
    <remove-loops value="True"/>
    <validate value="True"/>
    <begin value="361.0"/>
    <end value="721.0"/>
    <insertion-rate value="370.0"/>
</configuration>
-->

<!-- generated on 2025-07-31 11:10:03 by Eclipse SUMO duarouter Version 1.23.1
<duarouterConfiguration xmlns:xsi="http://www.w3.org/2001/XMLSchema-instance" xsi:noNamespaceSchemaLocation="http://sumo.dlr.de/xsd/duarouterConfiguration.xsd">

    <input>
        <net-file value="osm.net.xml.gz"/>
        <route-files value="osm.res_veh.interval_1.trips.xml"/>
    </input>

    <output>
        <output-file value="osm.res_veh.interval_1.trips.xml.tmp"/>
        <alternatives-output value="NUL"/>
        <write-trips value="true"/>
    </output>

    <processing>
        <remove-loops value="true"/>
    </processing>

    <time>
        <begin value="361.0"/>
        <end value="721.0"/>
    </time>

    <report>
        <no-warnings value="true"/>
        <ignore-errors value="true"/>
        <no-step-log value="true"/>
    </report>

</duarouterConfiguration>
-->

<routes xmlns:xsi="http://www.w3.org/2001/XMLSchema-instance" xsi:noNamespaceSchemaLocation="http://sumo.dlr.de/xsd/routes_file.xsd">
    <vType id="res_veh_int1_passenger" vClass="passenger"/>
    <trip id="res_veh_int10" type="res_veh_int1_passenger" depart="361.00" departLane="best" departSpeed="max" from="E22" to="E18.410"/>
    <trip id="res_veh_int11" type="res_veh_int1_passenger" depart="370.73" departLane="best" departSpeed="max" from="E18" to="E18.410"/>
    <trip id="res_veh_int12" type="res_veh_int1_passenger" depart="380.46" departLane="best" departSpeed="max" from="E30" to="E30.558"/>
    <trip id="res_veh_int13" type="res_veh_int1_passenger" depart="390.19" departLane="best" departSpeed="max" from="E31" to="E18.410"/>
    <trip id="res_veh_int14" type="res_veh_int1_passenger" depart="399.92" departLane="best" departSpeed="max" from="E18" to="E18.410"/>
    <trip id="res_veh_int16" type="res_veh_int1_passenger" depart="419.38" departLane="best" departSpeed="max" from="E18" to="E18.410"/>
    <trip id="res_veh_int17" type="res_veh_int1_passenger" depart="429.11" departLane="best" departSpeed="max" from="E22" to="E30.558"/>
    <trip id="res_veh_int110" type="res_veh_int1_passenger" depart="458.30" departLane="best" departSpeed="max" from="E30" to="E30.558"/>
    <trip id="res_veh_int111" type="res_veh_int1_passenger" depart="468.03" departLane="best" departSpeed="max" from="E18" to="E18.410"/>
    <trip id="res_veh_int113" type="res_veh_int1_passenger" depart="487.49" departLane="best" departSpeed="max" from="E18" to="E18.410"/>
    <trip id="res_veh_int114" type="res_veh_int1_passenger" depart="497.22" departLane="best" departSpeed="max" from="E31" to="E30.558"/>
    <trip id="res_veh_int115" type="res_veh_int1_passenger" depart="506.95" departLane="best" departSpeed="max" from="E30" to="E30.558"/>
    <trip id="res_veh_int118" type="res_veh_int1_passenger" depart="536.14" departLane="best" departSpeed="max" from="E30" to="E30.558"/>
    <trip id="res_veh_int119" type="res_veh_int1_passenger" depart="545.86" departLane="best" departSpeed="max" from="E31" to="E30.558"/>
    <trip id="res_veh_int121" type="res_veh_int1_passenger" depart="565.32" departLane="best" departSpeed="max" from="E18" to="E22.488"/>
    <trip id="res_veh_int122" type="res_veh_int1_passenger" depart="575.05" departLane="best" departSpeed="max" from="E18" to="E18.410"/>
    <trip id="res_veh_int123" type="res_veh_int1_passenger" depart="584.78" departLane="best" departSpeed="max" from="E18" to="E22.488"/>
    <trip id="res_veh_int124" type="res_veh_int1_passenger" depart="594.51" departLane="best" departSpeed="max" from="E22" to="E22.488"/>
    <trip id="res_veh_int125" type="res_veh_int1_passenger" depart="604.24" departLane="best" departSpeed="max" from="E18" to="E18.410"/>
    <trip id="res_veh_int126" type="res_veh_int1_passenger" depart="613.97" departLane="best" departSpeed="max" from="E18" to="E31.622"/>
    <trip id="res_veh_int127" type="res_veh_int1_passenger" depart="623.70" departLane="best" departSpeed="max" from="E22" to="E30.558"/>
    <trip id="res_veh_int129" type="res_veh_int1_passenger" depart="643.16" departLane="best" departSpeed="max" from="E18" to="E22.488"/>
    <trip id="res_veh_int130" type="res_veh_int1_passenger" depart="652.89" departLane="best" departSpeed="max" from="E31" to="E30.558"/>
    <trip id="res_veh_int131" type="res_veh_int1_passenger" depart="662.62" departLane="best" departSpeed="max" from="E22" to="E30.558"/>
    <trip id="res_veh_int132" type="res_veh_int1_passenger" depart="672.35" departLane="best" departSpeed="max" from="E31" to="E31.622"/>
    <trip id="res_veh_int133" type="res_veh_int1_passenger" depart="682.08" departLane="best" departSpeed="max" from="E18" to="E18.410"/>
    <trip id="res_veh_int134" type="res_veh_int1_passenger" depart="691.81" departLane="best" departSpeed="max" from="E18" to="E22.488"/>
    <trip id="res_veh_int135" type="res_veh_int1_passenger" depart="701.54" departLane="best" departSpeed="max" from="E18" to="E31.622"/>
</routes>
