<?xml version="1.0" encoding="UTF-8"?>

<!-- generated on 2025-07-31 11:10:09.244047 by randomTrips.py v1_23_1+0000-676720d13f6
<configuration>
    <net-file value="osm.net.xml.gz"/>
    <weights-prefix value="random_edge_priority_interval_6"/>
    <output-trip-file value="osm.res_veh.interval_6.trips.xml"/>
    <prefix value="res_veh_int6"/>
    <trip-attributes value="departLane='best'"/>
    <fringe-start-attributes value="departSpeed='max'"/>
    <vehicle-class value="passenger"/>
    <remove-loops value="True"/>
    <validate value="True"/>
    <begin value="2166.0"/>
    <end value="2526.0"/>
    <insertion-rate value="1480.0"/>
</configuration>
-->

<!-- generated on 2025-07-31 11:10:09 by Eclipse SUMO duarouter Version 1.23.1
<duarouterConfiguration xmlns:xsi="http://www.w3.org/2001/XMLSchema-instance" xsi:noNamespaceSchemaLocation="http://sumo.dlr.de/xsd/duarouterConfiguration.xsd">

    <input>
        <net-file value="osm.net.xml.gz"/>
        <route-files value="osm.res_veh.interval_6.trips.xml"/>
    </input>

    <output>
        <output-file value="osm.res_veh.interval_6.trips.xml.tmp"/>
        <alternatives-output value="NUL"/>
        <write-trips value="true"/>
    </output>

    <processing>
        <remove-loops value="true"/>
    </processing>

    <time>
        <begin value="2166.0"/>
        <end value="2526.0"/>
    </time>

    <report>
        <no-warnings value="true"/>
        <ignore-errors value="true"/>
        <no-step-log value="true"/>
    </report>

</duarouterConfiguration>
-->

<routes xmlns:xsi="http://www.w3.org/2001/XMLSchema-instance" xsi:noNamespaceSchemaLocation="http://sumo.dlr.de/xsd/routes_file.xsd">
    <vType id="res_veh_int6_passenger" vClass="passenger"/>
    <trip id="res_veh_int62" type="res_veh_int6_passenger" depart="2170.86" departLane="best" departSpeed="max" from="E31" to="E30.558"/>
    <trip id="res_veh_int63" type="res_veh_int6_passenger" depart="2173.30" departLane="best" departSpeed="max" from="E31" to="E18.410"/>
    <trip id="res_veh_int65" type="res_veh_int6_passenger" depart="2178.16" departLane="best" departSpeed="max" from="E22" to="E30.558"/>
    <trip id="res_veh_int66" type="res_veh_int6_passenger" depart="2180.59" departLane="best" departSpeed="max" from="E18" to="E18.410"/>
    <trip id="res_veh_int67" type="res_veh_int6_passenger" depart="2183.03" departLane="best" departSpeed="max" from="E30" to="E30.558"/>
    <trip id="res_veh_int68" type="res_veh_int6_passenger" depart="2185.46" departLane="best" departSpeed="max" from="E22" to="E30.558"/>
    <trip id="res_veh_int69" type="res_veh_int6_passenger" depart="2187.89" departLane="best" departSpeed="max" from="E31" to="E18.410"/>
    <trip id="res_veh_int610" type="res_veh_int6_passenger" depart="2190.32" departLane="best" departSpeed="max" from="E31" to="E30.558"/>
    <trip id="res_veh_int613" type="res_veh_int6_passenger" depart="2197.62" departLane="best" departSpeed="max" from="E18" to="E18.410"/>
    <trip id="res_veh_int614" type="res_veh_int6_passenger" depart="2200.05" departLane="best" departSpeed="max" from="E31" to="E30.558"/>
    <trip id="res_veh_int615" type="res_veh_int6_passenger" depart="2202.49" departLane="best" departSpeed="max" from="E31" to="E30.558"/>
    <trip id="res_veh_int616" type="res_veh_int6_passenger" depart="2204.92" departLane="best" departSpeed="max" from="E30" to="E31.622"/>
    <trip id="res_veh_int617" type="res_veh_int6_passenger" depart="2207.35" departLane="best" departSpeed="max" from="E30" to="E30.558"/>
    <trip id="res_veh_int618" type="res_veh_int6_passenger" depart="2209.78" departLane="best" departSpeed="max" from="E31" to="E30.558"/>
    <trip id="res_veh_int619" type="res_veh_int6_passenger" depart="2212.22" departLane="best" departSpeed="max" from="E31" to="E30.558"/>
    <trip id="res_veh_int620" type="res_veh_int6_passenger" depart="2214.65" departLane="best" departSpeed="max" from="E31" to="E18.410"/>
    <trip id="res_veh_int621" type="res_veh_int6_passenger" depart="2217.08" departLane="best" departSpeed="max" from="E22" to="E22.488"/>
    <trip id="res_veh_int622" type="res_veh_int6_passenger" depart="2219.51" departLane="best" departSpeed="max" from="E18" to="E18.410"/>
    <trip id="res_veh_int623" type="res_veh_int6_passenger" depart="2221.95" departLane="best" departSpeed="max" from="E18" to="E22.488"/>
    <trip id="res_veh_int624" type="res_veh_int6_passenger" depart="2224.38" departLane="best" departSpeed="max" from="E30" to="E22.488"/>
    <trip id="res_veh_int626" type="res_veh_int6_passenger" depart="2229.24" departLane="best" departSpeed="max" from="E30" to="E31.622"/>
    <trip id="res_veh_int627" type="res_veh_int6_passenger" depart="2231.68" departLane="best" departSpeed="max" from="E30" to="E30.558"/>
    <trip id="res_veh_int628" type="res_veh_int6_passenger" depart="2234.11" departLane="best" departSpeed="max" from="E22" to="E30.558"/>
    <trip id="res_veh_int629" type="res_veh_int6_passenger" depart="2236.54" departLane="best" departSpeed="max" from="E22" to="E22.488"/>
    <trip id="res_veh_int630" type="res_veh_int6_passenger" depart="2238.97" departLane="best" departSpeed="max" from="E31" to="E30.558"/>
    <trip id="res_veh_int631" type="res_veh_int6_passenger" depart="2241.41" departLane="best" departSpeed="max" from="E30" to="E30.558"/>
    <trip id="res_veh_int632" type="res_veh_int6_passenger" depart="2243.84" departLane="best" departSpeed="max" from="E31" to="E31.622"/>
    <trip id="res_veh_int633" type="res_veh_int6_passenger" depart="2246.27" departLane="best" departSpeed="max" from="E22" to="E18.410"/>
    <trip id="res_veh_int634" type="res_veh_int6_passenger" depart="2248.70" departLane="best" departSpeed="max" from="E30" to="E22.488"/>
    <trip id="res_veh_int637" type="res_veh_int6_passenger" depart="2256.00" departLane="best" departSpeed="max" from="E30" to="E22.488"/>
    <trip id="res_veh_int640" type="res_veh_int6_passenger" depart="2263.30" departLane="best" departSpeed="max" from="E30" to="E22.488"/>
    <trip id="res_veh_int641" type="res_veh_int6_passenger" depart="2265.73" departLane="best" departSpeed="max" from="E30" to="E31.622"/>
    <trip id="res_veh_int643" type="res_veh_int6_passenger" depart="2270.59" departLane="best" departSpeed="max" from="E31" to="E30.558"/>
    <trip id="res_veh_int644" type="res_veh_int6_passenger" depart="2273.03" departLane="best" departSpeed="max" from="E18" to="E18.410"/>
    <trip id="res_veh_int647" type="res_veh_int6_passenger" depart="2280.32" departLane="best" departSpeed="max" from="E18" to="E22.488"/>
    <trip id="res_veh_int648" type="res_veh_int6_passenger" depart="2282.76" departLane="best" departSpeed="max" from="E31" to="E30.558"/>
    <trip id="res_veh_int649" type="res_veh_int6_passenger" depart="2285.19" departLane="best" departSpeed="max" from="E31" to="E31.622"/>
    <trip id="res_veh_int651" type="res_veh_int6_passenger" depart="2290.05" departLane="best" departSpeed="max" from="E31" to="E30.558"/>
    <trip id="res_veh_int652" type="res_veh_int6_passenger" depart="2292.49" departLane="best" departSpeed="max" from="E30" to="E30.558"/>
    <trip id="res_veh_int653" type="res_veh_int6_passenger" depart="2294.92" departLane="best" departSpeed="max" from="E18" to="E22.488"/>
    <trip id="res_veh_int654" type="res_veh_int6_passenger" depart="2297.35" departLane="best" departSpeed="max" from="E30" to="E31.622"/>
    <trip id="res_veh_int657" type="res_veh_int6_passenger" depart="2304.65" departLane="best" departSpeed="max" from="E31" to="E31.622"/>
    <trip id="res_veh_int658" type="res_veh_int6_passenger" depart="2307.08" departLane="best" departSpeed="max" from="E30" to="E30.558"/>
    <trip id="res_veh_int660" type="res_veh_int6_passenger" depart="2311.95" departLane="best" departSpeed="max" from="E31" to="E30.558"/>
    <trip id="res_veh_int661" type="res_veh_int6_passenger" depart="2314.38" departLane="best" departSpeed="max" from="E31" to="E30.558"/>
    <trip id="res_veh_int662" type="res_veh_int6_passenger" depart="2316.81" departLane="best" departSpeed="max" from="E18" to="E22.488"/>
    <trip id="res_veh_int663" type="res_veh_int6_passenger" depart="2319.24" departLane="best" departSpeed="max" from="E18" to="E31.622"/>
    <trip id="res_veh_int664" type="res_veh_int6_passenger" depart="2321.68" departLane="best" departSpeed="max" from="E31" to="E31.622"/>
    <trip id="res_veh_int666" type="res_veh_int6_passenger" depart="2326.54" departLane="best" departSpeed="max" from="E31" to="E31.622"/>
    <trip id="res_veh_int667" type="res_veh_int6_passenger" depart="2328.97" departLane="best" departSpeed="max" from="E18" to="E22.488"/>
    <trip id="res_veh_int668" type="res_veh_int6_passenger" depart="2331.41" departLane="best" departSpeed="max" from="E18" to="E31.622"/>
    <trip id="res_veh_int669" type="res_veh_int6_passenger" depart="2333.84" departLane="best" departSpeed="max" from="E31" to="E18.410"/>
    <trip id="res_veh_int670" type="res_veh_int6_passenger" depart="2336.27" departLane="best" departSpeed="max" from="E30" to="E30.558"/>
    <trip id="res_veh_int671" type="res_veh_int6_passenger" depart="2338.70" departLane="best" departSpeed="max" from="E30" to="E31.622"/>
    <trip id="res_veh_int673" type="res_veh_int6_passenger" depart="2343.57" departLane="best" departSpeed="max" from="E30" to="E30.558"/>
    <trip id="res_veh_int674" type="res_veh_int6_passenger" depart="2346.00" departLane="best" departSpeed="max" from="E22" to="E22.488"/>
    <trip id="res_veh_int675" type="res_veh_int6_passenger" depart="2348.43" departLane="best" departSpeed="max" from="E31" to="E30.558"/>
    <trip id="res_veh_int676" type="res_veh_int6_passenger" depart="2350.86" departLane="best" departSpeed="max" from="E30" to="E30.558"/>
    <trip id="res_veh_int677" type="res_veh_int6_passenger" depart="2353.30" departLane="best" departSpeed="max" from="E22" to="E18.410"/>
    <trip id="res_veh_int678" type="res_veh_int6_passenger" depart="2355.73" departLane="best" departSpeed="max" from="E30" to="E30.558"/>
    <trip id="res_veh_int679" type="res_veh_int6_passenger" depart="2358.16" departLane="best" departSpeed="max" from="E22" to="E18.410"/>
    <trip id="res_veh_int682" type="res_veh_int6_passenger" depart="2365.46" departLane="best" departSpeed="max" from="E31" to="E18.410"/>
    <trip id="res_veh_int683" type="res_veh_int6_passenger" depart="2367.89" departLane="best" departSpeed="max" from="E30" to="E30.558"/>
    <trip id="res_veh_int684" type="res_veh_int6_passenger" depart="2370.32" departLane="best" departSpeed="max" from="E22" to="E18.410"/>
    <trip id="res_veh_int685" type="res_veh_int6_passenger" depart="2372.76" departLane="best" departSpeed="max" from="E31" to="E30.558"/>
    <trip id="res_veh_int686" type="res_veh_int6_passenger" depart="2375.19" departLane="best" departSpeed="max" from="E30" to="E31.622"/>
    <trip id="res_veh_int687" type="res_veh_int6_passenger" depart="2377.62" departLane="best" departSpeed="max" from="E31" to="E18.410"/>
    <trip id="res_veh_int688" type="res_veh_int6_passenger" depart="2380.05" departLane="best" departSpeed="max" from="E18" to="E22.488"/>
    <trip id="res_veh_int689" type="res_veh_int6_passenger" depart="2382.49" departLane="best" departSpeed="max" from="E30" to="E22.488"/>
    <trip id="res_veh_int690" type="res_veh_int6_passenger" depart="2384.92" departLane="best" departSpeed="max" from="E31" to="E30.558"/>
    <trip id="res_veh_int691" type="res_veh_int6_passenger" depart="2387.35" departLane="best" departSpeed="max" from="E31" to="E18.410"/>
    <trip id="res_veh_int692" type="res_veh_int6_passenger" depart="2389.78" departLane="best" departSpeed="max" from="E30" to="E22.488"/>
    <trip id="res_veh_int693" type="res_veh_int6_passenger" depart="2392.22" departLane="best" departSpeed="max" from="E31" to="E18.410"/>
    <trip id="res_veh_int694" type="res_veh_int6_passenger" depart="2394.65" departLane="best" departSpeed="max" from="E22" to="E22.488"/>
    <trip id="res_veh_int695" type="res_veh_int6_passenger" depart="2397.08" departLane="best" departSpeed="max" from="E30" to="E22.488"/>
    <trip id="res_veh_int696" type="res_veh_int6_passenger" depart="2399.51" departLane="best" departSpeed="max" from="E30" to="E31.622"/>
    <trip id="res_veh_int697" type="res_veh_int6_passenger" depart="2401.95" departLane="best" departSpeed="max" from="E30" to="E31.622"/>
    <trip id="res_veh_int699" type="res_veh_int6_passenger" depart="2406.81" departLane="best" departSpeed="max" from="E31" to="E31.622"/>
    <trip id="res_veh_int6100" type="res_veh_int6_passenger" depart="2409.24" departLane="best" departSpeed="max" from="E31" to="E31.622"/>
    <trip id="res_veh_int6101" type="res_veh_int6_passenger" depart="2411.68" departLane="best" departSpeed="max" from="E31" to="E18.410"/>
    <trip id="res_veh_int6104" type="res_veh_int6_passenger" depart="2418.97" departLane="best" departSpeed="max" from="E30" to="E31.622"/>
    <trip id="res_veh_int6105" type="res_veh_int6_passenger" depart="2421.41" departLane="best" departSpeed="max" from="E30" to="E31.622"/>
    <trip id="res_veh_int6106" type="res_veh_int6_passenger" depart="2423.84" departLane="best" departSpeed="max" from="E30" to="E22.488"/>
    <trip id="res_veh_int6107" type="res_veh_int6_passenger" depart="2426.27" departLane="best" departSpeed="max" from="E31" to="E31.622"/>
    <trip id="res_veh_int6108" type="res_veh_int6_passenger" depart="2428.70" departLane="best" departSpeed="max" from="E30" to="E30.558"/>
    <trip id="res_veh_int6109" type="res_veh_int6_passenger" depart="2431.14" departLane="best" departSpeed="max" from="E22" to="E22.488"/>
    <trip id="res_veh_int6110" type="res_veh_int6_passenger" depart="2433.57" departLane="best" departSpeed="max" from="E31" to="E30.558"/>
    <trip id="res_veh_int6111" type="res_veh_int6_passenger" depart="2436.00" departLane="best" departSpeed="max" from="E30" to="E30.558"/>
    <trip id="res_veh_int6113" type="res_veh_int6_passenger" depart="2440.86" departLane="best" departSpeed="max" from="E30" to="E31.622"/>
    <trip id="res_veh_int6115" type="res_veh_int6_passenger" depart="2445.73" departLane="best" departSpeed="max" from="E18" to="E18.410"/>
    <trip id="res_veh_int6116" type="res_veh_int6_passenger" depart="2448.16" departLane="best" departSpeed="max" from="E30" to="E30.558"/>
    <trip id="res_veh_int6117" type="res_veh_int6_passenger" depart="2450.59" departLane="best" departSpeed="max" from="E22" to="E18.410"/>
    <trip id="res_veh_int6118" type="res_veh_int6_passenger" depart="2453.03" departLane="best" departSpeed="max" from="E31" to="E18.410"/>
    <trip id="res_veh_int6119" type="res_veh_int6_passenger" depart="2455.46" departLane="best" departSpeed="max" from="E30" to="E30.558"/>
    <trip id="res_veh_int6120" type="res_veh_int6_passenger" depart="2457.89" departLane="best" departSpeed="max" from="E30" to="E30.558"/>
    <trip id="res_veh_int6121" type="res_veh_int6_passenger" depart="2460.32" departLane="best" departSpeed="max" from="E30" to="E31.622"/>
    <trip id="res_veh_int6122" type="res_veh_int6_passenger" depart="2462.76" departLane="best" departSpeed="max" from="E22" to="E30.558"/>
    <trip id="res_veh_int6123" type="res_veh_int6_passenger" depart="2465.19" departLane="best" departSpeed="max" from="E30" to="E22.488"/>
    <trip id="res_veh_int6125" type="res_veh_int6_passenger" depart="2470.05" departLane="best" departSpeed="max" from="E30" to="E31.622"/>
    <trip id="res_veh_int6126" type="res_veh_int6_passenger" depart="2472.49" departLane="best" departSpeed="max" from="E18" to="E22.488"/>
    <trip id="res_veh_int6127" type="res_veh_int6_passenger" depart="2474.92" departLane="best" departSpeed="max" from="E31" to="E31.622"/>
    <trip id="res_veh_int6128" type="res_veh_int6_passenger" depart="2477.35" departLane="best" departSpeed="max" from="E18" to="E18.410"/>
    <trip id="res_veh_int6129" type="res_veh_int6_passenger" depart="2479.78" departLane="best" departSpeed="max" from="E30" to="E31.622"/>
    <trip id="res_veh_int6130" type="res_veh_int6_passenger" depart="2482.22" departLane="best" departSpeed="max" from="E31" to="E31.622"/>
    <trip id="res_veh_int6132" type="res_veh_int6_passenger" depart="2487.08" departLane="best" departSpeed="max" from="E31" to="E30.558"/>
    <trip id="res_veh_int6133" type="res_veh_int6_passenger" depart="2489.51" departLane="best" departSpeed="max" from="E30" to="E31.622"/>
    <trip id="res_veh_int6136" type="res_veh_int6_passenger" depart="2496.81" departLane="best" departSpeed="max" from="E31" to="E31.622"/>
    <trip id="res_veh_int6137" type="res_veh_int6_passenger" depart="2499.24" departLane="best" departSpeed="max" from="E22" to="E18.410"/>
    <trip id="res_veh_int6139" type="res_veh_int6_passenger" depart="2504.11" departLane="best" departSpeed="max" from="E30" to="E30.558"/>
    <trip id="res_veh_int6140" type="res_veh_int6_passenger" depart="2506.54" departLane="best" departSpeed="max" from="E31" to="E18.410"/>
    <trip id="res_veh_int6141" type="res_veh_int6_passenger" depart="2508.97" departLane="best" departSpeed="max" from="E30" to="E22.488"/>
    <trip id="res_veh_int6142" type="res_veh_int6_passenger" depart="2511.41" departLane="best" departSpeed="max" from="E30" to="E31.622"/>
    <trip id="res_veh_int6143" type="res_veh_int6_passenger" depart="2513.84" departLane="best" departSpeed="max" from="E31" to="E18.410"/>
    <trip id="res_veh_int6144" type="res_veh_int6_passenger" depart="2516.27" departLane="best" departSpeed="max" from="E30" to="E22.488"/>
    <trip id="res_veh_int6145" type="res_veh_int6_passenger" depart="2518.70" departLane="best" departSpeed="max" from="E18" to="E31.622"/>
    <trip id="res_veh_int6146" type="res_veh_int6_passenger" depart="2521.14" departLane="best" departSpeed="max" from="E30" to="E22.488"/>
    <trip id="res_veh_int6147" type="res_veh_int6_passenger" depart="2523.57" departLane="best" departSpeed="max" from="E31" to="E30.558"/>
</routes>
