<?xml version="1.0" encoding="UTF-8"?>

<!-- generated on 2025-08-07 09:14:31 by Eclipse SUMO duarouter Version 1.22.0
<duarouterConfiguration xmlns:xsi="http://www.w3.org/2001/XMLSchema-instance" xsi:noNamespaceSchemaLocation="http://sumo.dlr.de/xsd/duarouterConfiguration.xsd">

    <input>
        <net-file value="osm.net.xml.gz"/>
        <route-files value="osm.res_truck.trips.xml"/>
    </input>

    <output>
        <output-file value="osm.res_truck.rou.xml"/>
    </output>

    <report>
        <ignore-errors value="true"/>
    </report>

</duarouterConfiguration>
-->

<routes xmlns:xsi="http://www.w3.org/2001/XMLSchema-instance" xsi:noNamespaceSchemaLocation="http://sumo.dlr.de/xsd/routes_file.xsd">
    <vType id="res_truck_int0_truck" vClass="truck"/>
    <vehicle id="res_truck_int00" type="res_truck_int0_truck" depart="0.00" departLane="best" departSpeed="max">
        <route edges="E31 E18.410"/>
    </vehicle>
    <vehicle id="res_truck_int01" type="res_truck_int0_truck" depart="14.40" departLane="best" departSpeed="max">
        <route edges="E22 E18.410"/>
    </vehicle>
    <vehicle id="res_truck_int02" type="res_truck_int0_truck" depart="28.80" departLane="best" departSpeed="max">
        <route edges="E31 E30.558"/>
    </vehicle>
    <vehicle id="res_truck_int03" type="res_truck_int0_truck" depart="43.20" departLane="best" departSpeed="max">
        <route edges="E31 E18.410"/>
    </vehicle>
    <vehicle id="res_truck_int05" type="res_truck_int0_truck" depart="72.00" departLane="best" departSpeed="max">
        <route edges="E22 E30.558"/>
    </vehicle>
    <vehicle id="res_truck_int06" type="res_truck_int0_truck" depart="86.40" departLane="best" departSpeed="max">
        <route edges="E18 E18.410"/>
    </vehicle>
    <vehicle id="res_truck_int07" type="res_truck_int0_truck" depart="100.80" departLane="best" departSpeed="max">
        <route edges="E31 E30.558"/>
    </vehicle>
    <vehicle id="res_truck_int08" type="res_truck_int0_truck" depart="115.20" departLane="best" departSpeed="max">
        <route edges="E22 E30.558"/>
    </vehicle>
    <vehicle id="res_truck_int09" type="res_truck_int0_truck" depart="129.60" departLane="best" departSpeed="max">
        <route edges="E31 E18.410"/>
    </vehicle>
    <vehicle id="res_truck_int010" type="res_truck_int0_truck" depart="144.00" departLane="best" departSpeed="max">
        <route edges="E31 E30.558"/>
    </vehicle>
    <vehicle id="res_truck_int011" type="res_truck_int0_truck" depart="158.40" departLane="best" departSpeed="max">
        <route edges="E22 E18.410"/>
    </vehicle>
    <vehicle id="res_truck_int013" type="res_truck_int0_truck" depart="187.20" departLane="best" departSpeed="max">
        <route edges="E18 E18.410"/>
    </vehicle>
    <vehicle id="res_truck_int014" type="res_truck_int0_truck" depart="201.60" departLane="best" departSpeed="max">
        <route edges="E31 E30.558"/>
    </vehicle>
    <vehicle id="res_truck_int015" type="res_truck_int0_truck" depart="216.00" departLane="best" departSpeed="max">
        <route edges="E31 E30.558"/>
    </vehicle>
    <vehicle id="res_truck_int016" type="res_truck_int0_truck" depart="230.40" departLane="best" departSpeed="max">
        <route edges="E30 E31.622"/>
    </vehicle>
    <vehicle id="res_truck_int017" type="res_truck_int0_truck" depart="244.80" departLane="best" departSpeed="max">
        <route edges="E30 E30.558"/>
    </vehicle>
    <vehicle id="res_truck_int018" type="res_truck_int0_truck" depart="259.20" departLane="best" departSpeed="max">
        <route edges="E31 E30.558"/>
    </vehicle>
    <vehicle id="res_truck_int019" type="res_truck_int0_truck" depart="273.60" departLane="best" departSpeed="max">
        <route edges="E31 E30.558"/>
    </vehicle>
    <vehicle id="res_truck_int020" type="res_truck_int0_truck" depart="288.00" departLane="best" departSpeed="max">
        <route edges="E31 E18.410"/>
    </vehicle>
    <vehicle id="res_truck_int021" type="res_truck_int0_truck" depart="302.40" departLane="best" departSpeed="max">
        <route edges="E22 E22.488"/>
    </vehicle>
    <vehicle id="res_truck_int022" type="res_truck_int0_truck" depart="316.80" departLane="best" departSpeed="max">
        <route edges="E18 E18.410"/>
    </vehicle>
    <vehicle id="res_truck_int023" type="res_truck_int0_truck" depart="331.20" departLane="best" departSpeed="max">
        <route edges="E18 E22.488"/>
    </vehicle>
    <vType id="res_truck_int1_truck" vClass="truck"/>
    <vehicle id="res_truck_int10" type="res_truck_int1_truck" depart="361.00" departLane="best" departSpeed="max">
        <route edges="E22 E18.410"/>
    </vehicle>
    <vehicle id="res_truck_int11" type="res_truck_int1_truck" depart="375.40" departLane="best" departSpeed="max">
        <route edges="E22 E18.410"/>
    </vehicle>
    <vehicle id="res_truck_int12" type="res_truck_int1_truck" depart="389.80" departLane="best" departSpeed="max">
        <route edges="E30 E30.558"/>
    </vehicle>
    <vehicle id="res_truck_int13" type="res_truck_int1_truck" depart="404.20" departLane="best" departSpeed="max">
        <route edges="E31 E18.410"/>
    </vehicle>
    <vehicle id="res_truck_int14" type="res_truck_int1_truck" depart="418.60" departLane="best" departSpeed="max">
        <route edges="E22 E18.410"/>
    </vehicle>
    <vehicle id="res_truck_int15" type="res_truck_int1_truck" depart="433.00" departLane="best" departSpeed="max">
        <route edges="E22 E30.558"/>
    </vehicle>
    <vehicle id="res_truck_int16" type="res_truck_int1_truck" depart="447.40" departLane="best" departSpeed="max">
        <route edges="E18 E18.410"/>
    </vehicle>
    <vehicle id="res_truck_int17" type="res_truck_int1_truck" depart="461.80" departLane="best" departSpeed="max">
        <route edges="E22 E30.558"/>
    </vehicle>
    <vehicle id="res_truck_int18" type="res_truck_int1_truck" depart="476.20" departLane="best" departSpeed="max">
        <route edges="E22 E30.558"/>
    </vehicle>
    <vehicle id="res_truck_int110" type="res_truck_int1_truck" depart="505.00" departLane="best" departSpeed="max">
        <route edges="E30 E30.558"/>
    </vehicle>
    <vehicle id="res_truck_int111" type="res_truck_int1_truck" depart="519.40" departLane="best" departSpeed="max">
        <route edges="E22 E18.410"/>
    </vehicle>
    <vehicle id="res_truck_int113" type="res_truck_int1_truck" depart="548.20" departLane="best" departSpeed="max">
        <route edges="E18 E18.410"/>
    </vehicle>
    <vehicle id="res_truck_int114" type="res_truck_int1_truck" depart="562.60" departLane="best" departSpeed="max">
        <route edges="E31 E30.558"/>
    </vehicle>
    <vehicle id="res_truck_int115" type="res_truck_int1_truck" depart="577.00" departLane="best" departSpeed="max">
        <route edges="E30 E30.558"/>
    </vehicle>
    <vehicle id="res_truck_int117" type="res_truck_int1_truck" depart="605.80" departLane="best" departSpeed="max">
        <route edges="E22 E30.558"/>
    </vehicle>
    <vehicle id="res_truck_int118" type="res_truck_int1_truck" depart="620.20" departLane="best" departSpeed="max">
        <route edges="E30 E30.558"/>
    </vehicle>
    <vehicle id="res_truck_int119" type="res_truck_int1_truck" depart="634.60" departLane="best" departSpeed="max">
        <route edges="E31 E30.558"/>
    </vehicle>
    <vehicle id="res_truck_int121" type="res_truck_int1_truck" depart="663.40" departLane="best" departSpeed="max">
        <route edges="E22 E22.488"/>
    </vehicle>
    <vehicle id="res_truck_int122" type="res_truck_int1_truck" depart="677.80" departLane="best" departSpeed="max">
        <route edges="E18 E18.410"/>
    </vehicle>
    <vehicle id="res_truck_int123" type="res_truck_int1_truck" depart="692.20" departLane="best" departSpeed="max">
        <route edges="E18 E22.488"/>
    </vehicle>
    <vehicle id="res_truck_int124" type="res_truck_int1_truck" depart="706.60" departLane="best" departSpeed="max">
        <route edges="E22 E22.488"/>
    </vehicle>
    <vType id="res_truck_int2_truck" vClass="truck"/>
    <vehicle id="res_truck_int21" type="res_truck_int2_truck" depart="725.60" departLane="best" departSpeed="max">
        <route edges="E22 E18.410"/>
    </vehicle>
    <vehicle id="res_truck_int22" type="res_truck_int2_truck" depart="729.20" departLane="best" departSpeed="max">
        <route edges="E30 E30.558"/>
    </vehicle>
    <vehicle id="res_truck_int23" type="res_truck_int2_truck" depart="732.80" departLane="best" departSpeed="max">
        <route edges="E31 E18.410"/>
    </vehicle>
    <vehicle id="res_truck_int24" type="res_truck_int2_truck" depart="736.40" departLane="best" departSpeed="max">
        <route edges="E22 E18.410"/>
    </vehicle>
    <vehicle id="res_truck_int25" type="res_truck_int2_truck" depart="740.00" departLane="best" departSpeed="max">
        <route edges="E22 E30.558"/>
    </vehicle>
    <vehicle id="res_truck_int26" type="res_truck_int2_truck" depart="743.60" departLane="best" departSpeed="max">
        <route edges="E18 E18.410"/>
    </vehicle>
    <vehicle id="res_truck_int27" type="res_truck_int2_truck" depart="747.20" departLane="best" departSpeed="max">
        <route edges="E30 E30.558"/>
    </vehicle>
    <vehicle id="res_truck_int28" type="res_truck_int2_truck" depart="750.80" departLane="best" departSpeed="max">
        <route edges="E22 E30.558"/>
    </vehicle>
    <vehicle id="res_truck_int210" type="res_truck_int2_truck" depart="758.00" departLane="best" departSpeed="max">
        <route edges="E30 E30.558"/>
    </vehicle>
    <vehicle id="res_truck_int211" type="res_truck_int2_truck" depart="761.60" departLane="best" departSpeed="max">
        <route edges="E22 E18.410"/>
    </vehicle>
    <vehicle id="res_truck_int213" type="res_truck_int2_truck" depart="768.80" departLane="best" departSpeed="max">
        <route edges="E18 E18.410"/>
    </vehicle>
    <vehicle id="res_truck_int214" type="res_truck_int2_truck" depart="772.40" departLane="best" departSpeed="max">
        <route edges="E31 E30.558"/>
    </vehicle>
    <vehicle id="res_truck_int215" type="res_truck_int2_truck" depart="776.00" departLane="best" departSpeed="max">
        <route edges="E30 E30.558"/>
    </vehicle>
    <vehicle id="res_truck_int217" type="res_truck_int2_truck" depart="783.20" departLane="best" departSpeed="max">
        <route edges="E22 E30.558"/>
    </vehicle>
    <vehicle id="res_truck_int218" type="res_truck_int2_truck" depart="786.80" departLane="best" departSpeed="max">
        <route edges="E31 E30.558"/>
    </vehicle>
    <vehicle id="res_truck_int219" type="res_truck_int2_truck" depart="790.40" departLane="best" departSpeed="max">
        <route edges="E31 E30.558"/>
    </vehicle>
    <vehicle id="res_truck_int221" type="res_truck_int2_truck" depart="797.60" departLane="best" departSpeed="max">
        <route edges="E22 E22.488"/>
    </vehicle>
    <vehicle id="res_truck_int222" type="res_truck_int2_truck" depart="801.20" departLane="best" departSpeed="max">
        <route edges="E18 E18.410"/>
    </vehicle>
    <vehicle id="res_truck_int223" type="res_truck_int2_truck" depart="804.80" departLane="best" departSpeed="max">
        <route edges="E18 E22.488"/>
    </vehicle>
    <vehicle id="res_truck_int224" type="res_truck_int2_truck" depart="808.40" departLane="best" departSpeed="max">
        <route edges="E30 E22.488"/>
    </vehicle>
    <vehicle id="res_truck_int225" type="res_truck_int2_truck" depart="812.00" departLane="best" departSpeed="max">
        <route edges="E22 E18.410"/>
    </vehicle>
    <vehicle id="res_truck_int227" type="res_truck_int2_truck" depart="819.20" departLane="best" departSpeed="max">
        <route edges="E30 E30.558"/>
    </vehicle>
    <vehicle id="res_truck_int229" type="res_truck_int2_truck" depart="826.40" departLane="best" departSpeed="max">
        <route edges="E18 E22.488"/>
    </vehicle>
    <vehicle id="res_truck_int230" type="res_truck_int2_truck" depart="830.00" departLane="best" departSpeed="max">
        <route edges="E31 E30.558"/>
    </vehicle>
    <vehicle id="res_truck_int231" type="res_truck_int2_truck" depart="833.60" departLane="best" departSpeed="max">
        <route edges="E22 E30.558"/>
    </vehicle>
    <vehicle id="res_truck_int232" type="res_truck_int2_truck" depart="837.20" departLane="best" departSpeed="max">
        <route edges="E31 E31.622"/>
    </vehicle>
    <vehicle id="res_truck_int233" type="res_truck_int2_truck" depart="840.80" departLane="best" departSpeed="max">
        <route edges="E22 E18.410"/>
    </vehicle>
    <vehicle id="res_truck_int234" type="res_truck_int2_truck" depart="844.40" departLane="best" departSpeed="max">
        <route edges="E22 E22.488"/>
    </vehicle>
    <vehicle id="res_truck_int237" type="res_truck_int2_truck" depart="855.20" departLane="best" departSpeed="max">
        <route edges="E30 E22.488"/>
    </vehicle>
    <vehicle id="res_truck_int239" type="res_truck_int2_truck" depart="862.40" departLane="best" departSpeed="max">
        <route edges="E22 E18.410"/>
    </vehicle>
    <vehicle id="res_truck_int240" type="res_truck_int2_truck" depart="866.00" departLane="best" departSpeed="max">
        <route edges="E22 E22.488"/>
    </vehicle>
    <vehicle id="res_truck_int242" type="res_truck_int2_truck" depart="873.20" departLane="best" departSpeed="max">
        <route edges="E22 E18.410"/>
    </vehicle>
    <vehicle id="res_truck_int243" type="res_truck_int2_truck" depart="876.80" departLane="best" departSpeed="max">
        <route edges="E31 E30.558"/>
    </vehicle>
    <vehicle id="res_truck_int244" type="res_truck_int2_truck" depart="880.40" departLane="best" departSpeed="max">
        <route edges="E18 E18.410"/>
    </vehicle>
    <vehicle id="res_truck_int246" type="res_truck_int2_truck" depart="887.60" departLane="best" departSpeed="max">
        <route edges="E30 E22.488"/>
    </vehicle>
    <vehicle id="res_truck_int247" type="res_truck_int2_truck" depart="891.20" departLane="best" departSpeed="max">
        <route edges="E18 E22.488"/>
    </vehicle>
    <vehicle id="res_truck_int248" type="res_truck_int2_truck" depart="894.80" departLane="best" departSpeed="max">
        <route edges="E31 E30.558"/>
    </vehicle>
    <vehicle id="res_truck_int249" type="res_truck_int2_truck" depart="898.40" departLane="best" departSpeed="max">
        <route edges="E31 E31.622"/>
    </vehicle>
    <vehicle id="res_truck_int251" type="res_truck_int2_truck" depart="905.60" departLane="best" departSpeed="max">
        <route edges="E30 E30.558"/>
    </vehicle>
    <vehicle id="res_truck_int252" type="res_truck_int2_truck" depart="909.20" departLane="best" departSpeed="max">
        <route edges="E22 E30.558"/>
    </vehicle>
    <vehicle id="res_truck_int253" type="res_truck_int2_truck" depart="912.80" departLane="best" departSpeed="max">
        <route edges="E18 E22.488"/>
    </vehicle>
    <vehicle id="res_truck_int256" type="res_truck_int2_truck" depart="923.60" departLane="best" departSpeed="max">
        <route edges="E22 E18.410"/>
    </vehicle>
    <vehicle id="res_truck_int257" type="res_truck_int2_truck" depart="927.20" departLane="best" departSpeed="max">
        <route edges="E31 E31.622"/>
    </vehicle>
    <vehicle id="res_truck_int258" type="res_truck_int2_truck" depart="930.80" departLane="best" departSpeed="max">
        <route edges="E22 E30.558"/>
    </vehicle>
    <vehicle id="res_truck_int259" type="res_truck_int2_truck" depart="934.40" departLane="best" departSpeed="max">
        <route edges="E22 E18.410"/>
    </vehicle>
    <vehicle id="res_truck_int260" type="res_truck_int2_truck" depart="938.00" departLane="best" departSpeed="max">
        <route edges="E30 E30.558"/>
    </vehicle>
    <vehicle id="res_truck_int261" type="res_truck_int2_truck" depart="941.60" departLane="best" departSpeed="max">
        <route edges="E30 E30.558"/>
    </vehicle>
    <vehicle id="res_truck_int262" type="res_truck_int2_truck" depart="945.20" departLane="best" departSpeed="max">
        <route edges="E18 E22.488"/>
    </vehicle>
    <vehicle id="res_truck_int263" type="res_truck_int2_truck" depart="948.80" departLane="best" departSpeed="max">
        <route edges="E18 E31.622"/>
    </vehicle>
    <vehicle id="res_truck_int264" type="res_truck_int2_truck" depart="952.40" departLane="best" departSpeed="max">
        <route edges="E31 E31.622"/>
    </vehicle>
    <vehicle id="res_truck_int265" type="res_truck_int2_truck" depart="956.00" departLane="best" departSpeed="max">
        <route edges="E22 E18.410"/>
    </vehicle>
    <vehicle id="res_truck_int266" type="res_truck_int2_truck" depart="959.60" departLane="best" departSpeed="max">
        <route edges="E31 E31.622"/>
    </vehicle>
    <vehicle id="res_truck_int267" type="res_truck_int2_truck" depart="963.20" departLane="best" departSpeed="max">
        <route edges="E18 E22.488"/>
    </vehicle>
    <vehicle id="res_truck_int268" type="res_truck_int2_truck" depart="966.80" departLane="best" departSpeed="max">
        <route edges="E18 E31.622"/>
    </vehicle>
    <vehicle id="res_truck_int270" type="res_truck_int2_truck" depart="974.00" departLane="best" departSpeed="max">
        <route edges="E22 E30.558"/>
    </vehicle>
    <vehicle id="res_truck_int272" type="res_truck_int2_truck" depart="981.20" departLane="best" departSpeed="max">
        <route edges="E22 E18.410"/>
    </vehicle>
    <vehicle id="res_truck_int273" type="res_truck_int2_truck" depart="984.80" departLane="best" departSpeed="max">
        <route edges="E22 E30.558"/>
    </vehicle>
    <vehicle id="res_truck_int274" type="res_truck_int2_truck" depart="988.40" departLane="best" departSpeed="max">
        <route edges="E22 E22.488"/>
    </vehicle>
    <vehicle id="res_truck_int275" type="res_truck_int2_truck" depart="992.00" departLane="best" departSpeed="max">
        <route edges="E31 E30.558"/>
    </vehicle>
    <vehicle id="res_truck_int276" type="res_truck_int2_truck" depart="995.60" departLane="best" departSpeed="max">
        <route edges="E22 E30.558"/>
    </vehicle>
    <vehicle id="res_truck_int277" type="res_truck_int2_truck" depart="999.20" departLane="best" departSpeed="max">
        <route edges="E18 E18.410"/>
    </vehicle>
    <vehicle id="res_truck_int278" type="res_truck_int2_truck" depart="1002.80" departLane="best" departSpeed="max">
        <route edges="E22 E30.558"/>
    </vehicle>
    <vehicle id="res_truck_int279" type="res_truck_int2_truck" depart="1006.40" departLane="best" departSpeed="max">
        <route edges="E22 E18.410"/>
    </vehicle>
    <vehicle id="res_truck_int282" type="res_truck_int2_truck" depart="1017.20" departLane="best" departSpeed="max">
        <route edges="E31 E18.410"/>
    </vehicle>
    <vehicle id="res_truck_int283" type="res_truck_int2_truck" depart="1020.80" departLane="best" departSpeed="max">
        <route edges="E22 E30.558"/>
    </vehicle>
    <vehicle id="res_truck_int284" type="res_truck_int2_truck" depart="1024.40" departLane="best" departSpeed="max">
        <route edges="E22 E18.410"/>
    </vehicle>
    <vehicle id="res_truck_int285" type="res_truck_int2_truck" depart="1028.00" departLane="best" departSpeed="max">
        <route edges="E31 E30.558"/>
    </vehicle>
    <vehicle id="res_truck_int288" type="res_truck_int2_truck" depart="1038.80" departLane="best" departSpeed="max">
        <route edges="E18 E22.488"/>
    </vehicle>
    <vehicle id="res_truck_int289" type="res_truck_int2_truck" depart="1042.40" departLane="best" departSpeed="max">
        <route edges="E22 E22.488"/>
    </vehicle>
    <vehicle id="res_truck_int290" type="res_truck_int2_truck" depart="1046.00" departLane="best" departSpeed="max">
        <route edges="E30 E30.558"/>
    </vehicle>
    <vehicle id="res_truck_int291" type="res_truck_int2_truck" depart="1049.60" departLane="best" departSpeed="max">
        <route edges="E31 E18.410"/>
    </vehicle>
    <vehicle id="res_truck_int292" type="res_truck_int2_truck" depart="1053.20" departLane="best" departSpeed="max">
        <route edges="E22 E22.488"/>
    </vehicle>
    <vehicle id="res_truck_int293" type="res_truck_int2_truck" depart="1056.80" departLane="best" departSpeed="max">
        <route edges="E31 E18.410"/>
    </vehicle>
    <vehicle id="res_truck_int294" type="res_truck_int2_truck" depart="1060.40" departLane="best" departSpeed="max">
        <route edges="E22 E22.488"/>
    </vehicle>
    <vehicle id="res_truck_int295" type="res_truck_int2_truck" depart="1064.00" departLane="best" departSpeed="max">
        <route edges="E22 E22.488"/>
    </vehicle>
    <vehicle id="res_truck_int298" type="res_truck_int2_truck" depart="1074.80" departLane="best" departSpeed="max">
        <route edges="E22 E18.410"/>
    </vehicle>
    <vehicle id="res_truck_int299" type="res_truck_int2_truck" depart="1078.40" departLane="best" departSpeed="max">
        <route edges="E31 E31.622"/>
    </vehicle>
    <vType id="res_truck_int3_truck" vClass="truck"/>
    <vehicle id="res_truck_int31" type="res_truck_int3_truck" depart="1097.40" departLane="best" departSpeed="max">
        <route edges="E18 E18.410"/>
    </vehicle>
    <vehicle id="res_truck_int32" type="res_truck_int3_truck" depart="1111.80" departLane="best" departSpeed="max">
        <route edges="E30 E30.558"/>
    </vehicle>
    <vehicle id="res_truck_int33" type="res_truck_int3_truck" depart="1126.20" departLane="best" departSpeed="max">
        <route edges="E31 E18.410"/>
    </vehicle>
    <vehicle id="res_truck_int34" type="res_truck_int3_truck" depart="1140.60" departLane="best" departSpeed="max">
        <route edges="E18 E18.410"/>
    </vehicle>
    <vehicle id="res_truck_int36" type="res_truck_int3_truck" depart="1169.40" departLane="best" departSpeed="max">
        <route edges="E18 E18.410"/>
    </vehicle>
    <vehicle id="res_truck_int37" type="res_truck_int3_truck" depart="1183.80" departLane="best" departSpeed="max">
        <route edges="E30 E30.558"/>
    </vehicle>
    <vehicle id="res_truck_int310" type="res_truck_int3_truck" depart="1227.00" departLane="best" departSpeed="max">
        <route edges="E30 E30.558"/>
    </vehicle>
    <vehicle id="res_truck_int311" type="res_truck_int3_truck" depart="1241.40" departLane="best" departSpeed="max">
        <route edges="E18 E18.410"/>
    </vehicle>
    <vehicle id="res_truck_int313" type="res_truck_int3_truck" depart="1270.20" departLane="best" departSpeed="max">
        <route edges="E18 E18.410"/>
    </vehicle>
    <vehicle id="res_truck_int314" type="res_truck_int3_truck" depart="1284.60" departLane="best" departSpeed="max">
        <route edges="E31 E30.558"/>
    </vehicle>
    <vehicle id="res_truck_int315" type="res_truck_int3_truck" depart="1299.00" departLane="best" departSpeed="max">
        <route edges="E30 E30.558"/>
    </vehicle>
    <vehicle id="res_truck_int318" type="res_truck_int3_truck" depart="1342.20" departLane="best" departSpeed="max">
        <route edges="E31 E30.558"/>
    </vehicle>
    <vehicle id="res_truck_int319" type="res_truck_int3_truck" depart="1356.60" departLane="best" departSpeed="max">
        <route edges="E31 E30.558"/>
    </vehicle>
    <vehicle id="res_truck_int321" type="res_truck_int3_truck" depart="1385.40" departLane="best" departSpeed="max">
        <route edges="E18 E22.488"/>
    </vehicle>
    <vehicle id="res_truck_int322" type="res_truck_int3_truck" depart="1399.80" departLane="best" departSpeed="max">
        <route edges="E18 E18.410"/>
    </vehicle>
    <vehicle id="res_truck_int323" type="res_truck_int3_truck" depart="1414.20" departLane="best" departSpeed="max">
        <route edges="E18 E22.488"/>
    </vehicle>
    <vehicle id="res_truck_int324" type="res_truck_int3_truck" depart="1428.60" departLane="best" departSpeed="max">
        <route edges="E30 E22.488"/>
    </vehicle>
    <vType id="res_truck_int4_truck" vClass="truck"/>
    <vehicle id="res_truck_int41" type="res_truck_int4_truck" depart="1458.40" departLane="best" departSpeed="max">
        <route edges="E22 E18.410"/>
    </vehicle>
    <vehicle id="res_truck_int42" type="res_truck_int4_truck" depart="1472.80" departLane="best" departSpeed="max">
        <route edges="E30 E30.558"/>
    </vehicle>
    <vehicle id="res_truck_int43" type="res_truck_int4_truck" depart="1487.20" departLane="best" departSpeed="max">
        <route edges="E31 E18.410"/>
    </vehicle>
    <vehicle id="res_truck_int45" type="res_truck_int4_truck" depart="1516.00" departLane="best" departSpeed="max">
        <route edges="E22 E30.558"/>
    </vehicle>
    <vehicle id="res_truck_int46" type="res_truck_int4_truck" depart="1530.40" departLane="best" departSpeed="max">
        <route edges="E18 E18.410"/>
    </vehicle>
    <vehicle id="res_truck_int47" type="res_truck_int4_truck" depart="1544.80" departLane="best" departSpeed="max">
        <route edges="E30 E30.558"/>
    </vehicle>
    <vehicle id="res_truck_int48" type="res_truck_int4_truck" depart="1559.20" departLane="best" departSpeed="max">
        <route edges="E22 E30.558"/>
    </vehicle>
    <vehicle id="res_truck_int410" type="res_truck_int4_truck" depart="1588.00" departLane="best" departSpeed="max">
        <route edges="E30 E30.558"/>
    </vehicle>
    <vehicle id="res_truck_int413" type="res_truck_int4_truck" depart="1631.20" departLane="best" departSpeed="max">
        <route edges="E18 E18.410"/>
    </vehicle>
    <vehicle id="res_truck_int414" type="res_truck_int4_truck" depart="1645.60" departLane="best" departSpeed="max">
        <route edges="E31 E30.558"/>
    </vehicle>
    <vehicle id="res_truck_int415" type="res_truck_int4_truck" depart="1660.00" departLane="best" departSpeed="max">
        <route edges="E30 E30.558"/>
    </vehicle>
    <vehicle id="res_truck_int416" type="res_truck_int4_truck" depart="1674.40" departLane="best" departSpeed="max">
        <route edges="E30 E31.622"/>
    </vehicle>
    <vehicle id="res_truck_int417" type="res_truck_int4_truck" depart="1688.80" departLane="best" departSpeed="max">
        <route edges="E30 E30.558"/>
    </vehicle>
    <vehicle id="res_truck_int418" type="res_truck_int4_truck" depart="1703.20" departLane="best" departSpeed="max">
        <route edges="E30 E30.558"/>
    </vehicle>
    <vehicle id="res_truck_int419" type="res_truck_int4_truck" depart="1717.60" departLane="best" departSpeed="max">
        <route edges="E31 E30.558"/>
    </vehicle>
    <vehicle id="res_truck_int421" type="res_truck_int4_truck" depart="1746.40" departLane="best" departSpeed="max">
        <route edges="E22 E22.488"/>
    </vehicle>
    <vehicle id="res_truck_int422" type="res_truck_int4_truck" depart="1760.80" departLane="best" departSpeed="max">
        <route edges="E18 E18.410"/>
    </vehicle>
    <vehicle id="res_truck_int423" type="res_truck_int4_truck" depart="1775.20" departLane="best" departSpeed="max">
        <route edges="E18 E22.488"/>
    </vehicle>
    <vehicle id="res_truck_int424" type="res_truck_int4_truck" depart="1789.60" departLane="best" departSpeed="max">
        <route edges="E30 E22.488"/>
    </vehicle>
    <vType id="res_truck_int5_truck" vClass="truck"/>
    <vehicle id="res_truck_int51" type="res_truck_int5_truck" depart="1819.40" departLane="best" departSpeed="max">
        <route edges="E22 E18.410"/>
    </vehicle>
    <vehicle id="res_truck_int52" type="res_truck_int5_truck" depart="1833.80" departLane="best" departSpeed="max">
        <route edges="E30 E30.558"/>
    </vehicle>
    <vehicle id="res_truck_int53" type="res_truck_int5_truck" depart="1848.20" departLane="best" departSpeed="max">
        <route edges="E31 E18.410"/>
    </vehicle>
    <vehicle id="res_truck_int54" type="res_truck_int5_truck" depart="1862.60" departLane="best" departSpeed="max">
        <route edges="E22 E18.410"/>
    </vehicle>
    <vehicle id="res_truck_int55" type="res_truck_int5_truck" depart="1877.00" departLane="best" departSpeed="max">
        <route edges="E22 E30.558"/>
    </vehicle>
    <vehicle id="res_truck_int56" type="res_truck_int5_truck" depart="1891.40" departLane="best" departSpeed="max">
        <route edges="E18 E18.410"/>
    </vehicle>
    <vehicle id="res_truck_int57" type="res_truck_int5_truck" depart="1905.80" departLane="best" departSpeed="max">
        <route edges="E30 E30.558"/>
    </vehicle>
    <vehicle id="res_truck_int58" type="res_truck_int5_truck" depart="1920.20" departLane="best" departSpeed="max">
        <route edges="E22 E30.558"/>
    </vehicle>
    <vehicle id="res_truck_int510" type="res_truck_int5_truck" depart="1949.00" departLane="best" departSpeed="max">
        <route edges="E30 E30.558"/>
    </vehicle>
    <vehicle id="res_truck_int511" type="res_truck_int5_truck" depart="1963.40" departLane="best" departSpeed="max">
        <route edges="E22 E18.410"/>
    </vehicle>
    <vehicle id="res_truck_int513" type="res_truck_int5_truck" depart="1992.20" departLane="best" departSpeed="max">
        <route edges="E18 E18.410"/>
    </vehicle>
    <vehicle id="res_truck_int514" type="res_truck_int5_truck" depart="2006.60" departLane="best" departSpeed="max">
        <route edges="E30 E30.558"/>
    </vehicle>
    <vehicle id="res_truck_int515" type="res_truck_int5_truck" depart="2021.00" departLane="best" departSpeed="max">
        <route edges="E30 E30.558"/>
    </vehicle>
    <vehicle id="res_truck_int517" type="res_truck_int5_truck" depart="2049.80" departLane="best" departSpeed="max">
        <route edges="E22 E30.558"/>
    </vehicle>
    <vehicle id="res_truck_int518" type="res_truck_int5_truck" depart="2064.20" departLane="best" departSpeed="max">
        <route edges="E30 E30.558"/>
    </vehicle>
    <vehicle id="res_truck_int519" type="res_truck_int5_truck" depart="2078.60" departLane="best" departSpeed="max">
        <route edges="E30 E30.558"/>
    </vehicle>