<?xml version="1.0" encoding="UTF-8"?>

<!-- generated on 2025-07-31 11:10:41.732539 by randomTrips.py v1_23_1+0000-676720d13f6
<configuration>
    <net-file value="osm.net.xml.gz"/>
    <weights-prefix value="random_edge_priority_interval_3"/>
    <output-trip-file value="osm.res_ped.interval_3.trips.xml"/>
    <prefix value="res_ped_int3"/>
    <trip-attributes value="departLane='best'"/>
    <fringe-start-attributes value="departSpeed='max'"/>
    <vclass value="pedestrian"/>
    <via-edge-types value="footway,path,sidewalk"/>
    <remove-loops value="True"/>
    <validate value="True"/>
    <begin value="1083.0"/>
    <end value="1443.0"/>
    <insertion-rate value="100.0"/>
</configuration>
-->

<!-- generated on 2025-07-31 11:10:41 by Eclipse SUMO duarouter Version 1.23.1
<duarouterConfiguration xmlns:xsi="http://www.w3.org/2001/XMLSchema-instance" xsi:noNamespaceSchemaLocation="http://sumo.dlr.de/xsd/duarouterConfiguration.xsd">

    <input>
        <net-file value="osm.net.xml.gz"/>
        <route-files value="osm.res_ped.interval_3.trips.xml"/>
    </input>

    <output>
        <output-file value="osm.res_ped.interval_3.trips.xml.tmp"/>
        <alternatives-output value="NUL"/>
        <write-trips value="true"/>
    </output>

    <processing>
        <remove-loops value="true"/>
    </processing>

    <time>
        <begin value="1083.0"/>
        <end value="1443.0"/>
    </time>

    <report>
        <no-warnings value="true"/>
        <ignore-errors value="true"/>
        <no-step-log value="true"/>
    </report>

</duarouterConfiguration>
-->

<routes xmlns:xsi="http://www.w3.org/2001/XMLSchema-instance" xsi:noNamespaceSchemaLocation="http://sumo.dlr.de/xsd/routes_file.xsd">
    <trip id="res_ped_int31" depart="1119.00" departLane="best" departSpeed="max" from="E18" to="E18.410"/>
    <trip id="res_ped_int32" depart="1155.00" departLane="best" departSpeed="max" from="E30" to="E30.558"/>
    <trip id="res_ped_int33" depart="1191.00" departLane="best" departSpeed="max" from="E31" to="E18.410"/>
    <trip id="res_ped_int34" depart="1227.00" departLane="best" departSpeed="max" from="E22" to="E18.410"/>
    <trip id="res_ped_int36" depart="1299.00" departLane="best" departSpeed="max" from="E18" to="E18.410"/>
    <trip id="res_ped_int37" depart="1335.00" departLane="best" departSpeed="max" from="E30" to="E30.558"/>
</routes>
