<?xml version="1.0" encoding="UTF-8"?>

<!-- generated on 2025-07-30 17:24:59.523429 by randomTrips.py v1_23_1+0000-676720d13f6
<configuration>
    <net-file value="osm.net.xml.gz"/>
    <weights-prefix value="random_edge_priority_interval_2"/>
    <output-trip-file value="osm.res_veh.interval_2.trips.xml"/>
    <prefix value="res_veh_int2"/>
    <trip-attributes value="departLane='best'"/>
    <fringe-start-attributes value="departSpeed='max'"/>
    <vehicle-class value="passenger"/>
    <remove-loops value="True"/>
    <validate value="True"/>
    <begin value="722.0"/>
    <end value="1082.0"/>
    <insertion-rate value="370.0"/>
</configuration>
-->

<!-- generated on 2025-07-30 17:24:59 by Eclipse SUMO duarouter Version 1.23.1
<duarouterConfiguration xmlns:xsi="http://www.w3.org/2001/XMLSchema-instance" xsi:noNamespaceSchemaLocation="http://sumo.dlr.de/xsd/duarouterConfiguration.xsd">

    <input>
        <net-file value="osm.net.xml.gz"/>
        <route-files value="osm.res_veh.interval_2.trips.xml"/>
    </input>

    <output>
        <output-file value="osm.res_veh.interval_2.trips.xml.tmp"/>
        <alternatives-output value="NUL"/>
        <write-trips value="true"/>
    </output>

    <processing>
        <remove-loops value="true"/>
    </processing>

    <time>
        <begin value="722.0"/>
        <end value="1082.0"/>
    </time>

    <report>
        <no-warnings value="true"/>
        <ignore-errors value="true"/>
        <no-step-log value="true"/>
    </report>

</duarouterConfiguration>
-->

<routes xmlns:xsi="http://www.w3.org/2001/XMLSchema-instance" xsi:noNamespaceSchemaLocation="http://sumo.dlr.de/xsd/routes_file.xsd">
    <vType id="res_veh_int2_passenger" vClass="passenger"/>
    <trip id="res_veh_int21" type="res_veh_int2_passenger" depart="731.73" departLane="best" departSpeed="max" from="E22" to="E18.410"/>
    <trip id="res_veh_int22" type="res_veh_int2_passenger" depart="741.46" departLane="best" departSpeed="max" from="E30" to="E30.558"/>
    <trip id="res_veh_int23" type="res_veh_int2_passenger" depart="751.19" departLane="best" departSpeed="max" from="E31" to="E18.410"/>
    <trip id="res_veh_int24" type="res_veh_int2_passenger" depart="760.92" departLane="best" departSpeed="max" from="E22" to="E18.410"/>
    <trip id="res_veh_int26" type="res_veh_int2_passenger" depart="780.38" departLane="best" departSpeed="max" from="E18" to="E18.410"/>
    <trip id="res_veh_int27" type="res_veh_int2_passenger" depart="790.11" departLane="best" departSpeed="max" from="E30" to="E30.558"/>
    <trip id="res_veh_int29" type="res_veh_int2_passenger" depart="809.57" departLane="best" departSpeed="max" from="E31" to="E18.410"/>
    <trip id="res_veh_int210" type="res_veh_int2_passenger" depart="819.30" departLane="best" departSpeed="max" from="E31" to="E30.558"/>
    <trip id="res_veh_int211" type="res_veh_int2_passenger" depart="829.03" departLane="best" departSpeed="max" from="E22" to="E18.410"/>
    <trip id="res_veh_int213" type="res_veh_int2_passenger" depart="848.49" departLane="best" departSpeed="max" from="E18" to="E18.410"/>
    <trip id="res_veh_int214" type="res_veh_int2_passenger" depart="858.22" departLane="best" departSpeed="max" from="E31" to="E30.558"/>
    <trip id="res_veh_int215" type="res_veh_int2_passenger" depart="867.95" departLane="best" departSpeed="max" from="E31" to="E30.558"/>
    <trip id="res_veh_int216" type="res_veh_int2_passenger" depart="877.68" departLane="best" departSpeed="max" from="E30" to="E31.622"/>
    <trip id="res_veh_int217" type="res_veh_int2_passenger" depart="887.41" departLane="best" departSpeed="max" from="E22" to="E30.558"/>
    <trip id="res_veh_int218" type="res_veh_int2_passenger" depart="897.14" departLane="best" departSpeed="max" from="E31" to="E30.558"/>
    <trip id="res_veh_int219" type="res_veh_int2_passenger" depart="906.86" departLane="best" departSpeed="max" from="E31" to="E30.558"/>
    <trip id="res_veh_int221" type="res_veh_int2_passenger" depart="926.32" departLane="best" departSpeed="max" from="E18" to="E22.488"/>
    <trip id="res_veh_int222" type="res_veh_int2_passenger" depart="936.05" departLane="best" departSpeed="max" from="E18" to="E18.410"/>
    <trip id="res_veh_int223" type="res_veh_int2_passenger" depart="945.78" departLane="best" departSpeed="max" from="E18" to="E22.488"/>
    <trip id="res_veh_int224" type="res_veh_int2_passenger" depart="955.51" departLane="best" departSpeed="max" from="E30" to="E22.488"/>
    <trip id="res_veh_int225" type="res_veh_int2_passenger" depart="965.24" departLane="best" departSpeed="max" from="E22" to="E18.410"/>
    <trip id="res_veh_int227" type="res_veh_int2_passenger" depart="984.70" departLane="best" departSpeed="max" from="E30" to="E30.558"/>
    <trip id="res_veh_int229" type="res_veh_int2_passenger" depart="1004.16" departLane="best" departSpeed="max" from="E18" to="E22.488"/>
    <trip id="res_veh_int230" type="res_veh_int2_passenger" depart="1013.89" departLane="best" departSpeed="max" from="E31" to="E30.558"/>
    <trip id="res_veh_int231" type="res_veh_int2_passenger" depart="1023.62" departLane="best" departSpeed="max" from="E30" to="E30.558"/>
    <trip id="res_veh_int232" type="res_veh_int2_passenger" depart="1033.35" departLane="best" departSpeed="max" from="E31" to="E31.622"/>
    <trip id="res_veh_int233" type="res_veh_int2_passenger" depart="1043.08" departLane="best" departSpeed="max" from="E18" to="E18.410"/>
    <trip id="res_veh_int234" type="res_veh_int2_passenger" depart="1052.81" departLane="best" departSpeed="max" from="E22" to="E22.488"/>
    <trip id="res_veh_int235" type="res_veh_int2_passenger" depart="1062.54" departLane="best" departSpeed="max" from="E18" to="E31.622"/>
</routes>
