<?xml version="1.0" encoding="UTF-8"?>

<!-- generated on 2025-07-31 11:07:46 by Eclipse SUMO netedit Version 1.23.1
-->

<additional xmlns:xsi="http://www.w3.org/2001/XMLSchema-instance" xsi:noNamespaceSchemaLocation="http://sumo.dlr.de/xsd/additional_file.xsd">
    <!-- Detectors -->
    <laneAreaDetector id="e2_0" lane="E30_2" pos="2438.08" length="100.00" period="300.00" file="e2_0.xml" friendlyPos="1"/>
    <laneAreaDetector id="e2_1" lane="E30_1" pos="2438.00" length="100.00" period="300.00" file="e2_1.xml" friendlyPos="1"/>
    <laneAreaDetector id="e2_2" lane="E22_3" pos="2183.00" length="100.00" period="300.00" file="e2_2.xml" friendlyPos="1"/>
    <laneAreaDetector id="e2_3" lane="E18_3" pos="1315.00" length="100.00" period="300.00" file="e2_3.xml"/>
    <laneAreaDetector id="e2_4" lane="E31_3" pos="1567.00" length="100.00" period="300.00" file="e2_4.xml"/>
    <laneAreaDetector id="e2_5" lane="E30_3" pos="2438.00" length="100.00" period="300.00" file="e2_5.xml" friendlyPos="1"/>
    <laneAreaDetector id="e2_50" lane="E31_1" pos="1567.19" length="100.00" period="300.00" file="e2_50.xml"/>
    <laneAreaDetector id="e2_51" lane="E31_2" pos="1567.19" length="100.00" period="300.00" file="e2_51.xml"/>
    <laneAreaDetector id="e2_52" lane="E22_2" pos="2183.00" length="100.00" period="300.00" file="e2_52.xml" friendlyPos="1"/>
    <laneAreaDetector id="e2_53" lane="E22_1" pos="2183.00" length="100.00" period="300.00" file="e2_53.xml" friendlyPos="1"/>
    <laneAreaDetector id="e2_54" lane="E18_1" pos="1315.00" length="100.00" period="300.00" file="e2_54.xml" friendlyPos="1"/>
    <laneAreaDetector id="e2_55" lane="E18_2" pos="1315.70" length="100.00" period="300.00" file="e2_55.xml" friendlyPos="1"/>
</additional>
