<?xml version="1.0" encoding="UTF-8"?>

<!-- generated on 2025-07-30 17:25:01.147067 by randomTrips.py v1_23_1+0000-676720d13f6
<configuration>
    <net-file value="osm.net.xml.gz"/>
    <weights-prefix value="random_edge_priority_interval_4"/>
    <output-trip-file value="osm.res_veh.interval_4.trips.xml"/>
    <prefix value="res_veh_int4"/>
    <trip-attributes value="departLane='best'"/>
    <fringe-start-attributes value="departSpeed='max'"/>
    <vehicle-class value="passenger"/>
    <remove-loops value="True"/>
    <validate value="True"/>
    <begin value="1444.0"/>
    <end value="1804.0"/>
    <insertion-rate value="370.0"/>
</configuration>
-->

<!-- generated on 2025-07-30 17:25:01 by Eclipse SUMO duarouter Version 1.23.1
<duarouterConfiguration xmlns:xsi="http://www.w3.org/2001/XMLSchema-instance" xsi:noNamespaceSchemaLocation="http://sumo.dlr.de/xsd/duarouterConfiguration.xsd">

    <input>
        <net-file value="osm.net.xml.gz"/>
        <route-files value="osm.res_veh.interval_4.trips.xml"/>
    </input>

    <output>
        <output-file value="osm.res_veh.interval_4.trips.xml.tmp"/>
        <alternatives-output value="NUL"/>
        <write-trips value="true"/>
    </output>

    <processing>
        <remove-loops value="true"/>
    </processing>

    <time>
        <begin value="1444.0"/>
        <end value="1804.0"/>
    </time>

    <report>
        <no-warnings value="true"/>
        <ignore-errors value="true"/>
        <no-step-log value="true"/>
    </report>

</duarouterConfiguration>
-->

<routes xmlns:xsi="http://www.w3.org/2001/XMLSchema-instance" xsi:noNamespaceSchemaLocation="http://sumo.dlr.de/xsd/routes_file.xsd">
    <vType id="res_veh_int4_passenger" vClass="passenger"/>
    <trip id="res_veh_int41" type="res_veh_int4_passenger" depart="1453.73" departLane="best" departSpeed="max" from="E22" to="E18.410"/>
    <trip id="res_veh_int42" type="res_veh_int4_passenger" depart="1463.46" departLane="best" departSpeed="max" from="E30" to="E30.558"/>
    <trip id="res_veh_int43" type="res_veh_int4_passenger" depart="1473.19" departLane="best" departSpeed="max" from="E31" to="E18.410"/>
    <trip id="res_veh_int44" type="res_veh_int4_passenger" depart="1482.92" departLane="best" departSpeed="max" from="E22" to="E18.410"/>
    <trip id="res_veh_int46" type="res_veh_int4_passenger" depart="1502.38" departLane="best" departSpeed="max" from="E18" to="E18.410"/>
    <trip id="res_veh_int47" type="res_veh_int4_passenger" depart="1512.11" departLane="best" departSpeed="max" from="E30" to="E30.558"/>
    <trip id="res_veh_int49" type="res_veh_int4_passenger" depart="1531.57" departLane="best" departSpeed="max" from="E31" to="E18.410"/>
    <trip id="res_veh_int410" type="res_veh_int4_passenger" depart="1541.30" departLane="best" departSpeed="max" from="E31" to="E30.558"/>
    <trip id="res_veh_int411" type="res_veh_int4_passenger" depart="1551.03" departLane="best" departSpeed="max" from="E22" to="E18.410"/>
    <trip id="res_veh_int413" type="res_veh_int4_passenger" depart="1570.49" departLane="best" departSpeed="max" from="E18" to="E18.410"/>
    <trip id="res_veh_int414" type="res_veh_int4_passenger" depart="1580.22" departLane="best" departSpeed="max" from="E31" to="E30.558"/>
    <trip id="res_veh_int415" type="res_veh_int4_passenger" depart="1589.95" departLane="best" departSpeed="max" from="E31" to="E30.558"/>
    <trip id="res_veh_int416" type="res_veh_int4_passenger" depart="1599.68" departLane="best" departSpeed="max" from="E30" to="E31.622"/>
    <trip id="res_veh_int417" type="res_veh_int4_passenger" depart="1609.41" departLane="best" departSpeed="max" from="E22" to="E30.558"/>
    <trip id="res_veh_int418" type="res_veh_int4_passenger" depart="1619.14" departLane="best" departSpeed="max" from="E31" to="E30.558"/>
    <trip id="res_veh_int419" type="res_veh_int4_passenger" depart="1628.86" departLane="best" departSpeed="max" from="E31" to="E30.558"/>
    <trip id="res_veh_int421" type="res_veh_int4_passenger" depart="1648.32" departLane="best" departSpeed="max" from="E18" to="E22.488"/>
    <trip id="res_veh_int422" type="res_veh_int4_passenger" depart="1658.05" departLane="best" departSpeed="max" from="E18" to="E18.410"/>
    <trip id="res_veh_int423" type="res_veh_int4_passenger" depart="1667.78" departLane="best" departSpeed="max" from="E18" to="E22.488"/>
    <trip id="res_veh_int424" type="res_veh_int4_passenger" depart="1677.51" departLane="best" departSpeed="max" from="E30" to="E22.488"/>
    <trip id="res_veh_int425" type="res_veh_int4_passenger" depart="1687.24" departLane="best" departSpeed="max" from="E22" to="E18.410"/>
    <trip id="res_veh_int427" type="res_veh_int4_passenger" depart="1706.70" departLane="best" departSpeed="max" from="E30" to="E30.558"/>
    <trip id="res_veh_int429" type="res_veh_int4_passenger" depart="1726.16" departLane="best" departSpeed="max" from="E18" to="E22.488"/>
    <trip id="res_veh_int430" type="res_veh_int4_passenger" depart="1735.89" departLane="best" departSpeed="max" from="E31" to="E30.558"/>
    <trip id="res_veh_int431" type="res_veh_int4_passenger" depart="1745.62" departLane="best" departSpeed="max" from="E30" to="E30.558"/>
    <trip id="res_veh_int432" type="res_veh_int4_passenger" depart="1755.35" departLane="best" departSpeed="max" from="E31" to="E31.622"/>
    <trip id="res_veh_int433" type="res_veh_int4_passenger" depart="1765.08" departLane="best" departSpeed="max" from="E18" to="E18.410"/>
    <trip id="res_veh_int434" type="res_veh_int4_passenger" depart="1774.81" departLane="best" departSpeed="max" from="E22" to="E22.488"/>
    <trip id="res_veh_int435" type="res_veh_int4_passenger" depart="1784.54" departLane="best" departSpeed="max" from="E18" to="E31.622"/>
</routes>
