<routes>

<!-- generated on 2025-08-07 05:47:03.097272 by randomTrips.py v1_22_0+0002-63e50f52594
<configuration>
    <net-file value="osm.net.xml.gz"/>
    <weights-prefix value="random_edge_priority_interval_0"/>
    <output-trip-file value="osm.res_truck.interval_0.trips.xml"/>
    <route-file value="osm.res_truck.interval_0.rou.xml"/>
    <prefix value="res_truck_int0"/>
    <trip-attributes value="departLane=&quot;best&quot;"/>
    <fringe-start-attributes value="departSpeed=&quot;max&quot;"/>
    <vehicle-class value="truck"/>
    <vclass value="truck"/>
    <remove-loops value="True"/>
    <validate value="True"/>
    <end value="360.0"/>
    <insertion-rate value="250.0"/>
</configuration>
-->

<!-- generated on 2025-08-07 05:47:03 by Eclipse SUMO duarouter Version 1.22.0
<duarouterConfiguration xmlns:xsi="http://www.w3.org/2001/XMLSchema-instance" xsi:noNamespaceSchemaLocation="http://sumo.dlr.de/xsd/duarouterConfiguration.xsd">

    <input>
        <net-file value="osm.net.xml.gz"/>
        <route-files value="osm.res_truck.interval_0.trips.xml"/>
    </input>

    <output>
        <output-file value="osm.res_truck.interval_0.trips.xml.tmp"/>
        <alternatives-output value="NUL"/>
        <write-trips value="true"/>
    </output>

    <processing>
        <remove-loops value="true"/>
    </processing>

    <time>
        <begin value="0.0"/>
        <end value="360.0"/>
    </time>

    <report>
        <no-warnings value="true"/>
        <ignore-errors value="true"/>
        <no-step-log value="true"/>
    </report>

</duarouterConfiguration>
-->

    <vType id="res_truck_int0_truck" vClass="truck"/>
    <trip id="res_truck_int01" type="res_truck_int0_truck" depart="14.40" departLane="best" departSpeed="max" from="E18" to="E18.410"/>
    <trip id="res_truck_int02" type="res_truck_int0_truck" depart="28.80" departLane="best" departSpeed="max" from="E31" to="E30.558"/>
    <trip id="res_truck_int03" type="res_truck_int0_truck" depart="43.20" departLane="best" departSpeed="max" from="E31" to="E18.410"/>
    <trip id="res_truck_int06" type="res_truck_int0_truck" depart="86.40" departLane="best" departSpeed="max" from="E18" to="E18.410"/>
    <trip id="res_truck_int07" type="res_truck_int0_truck" depart="100.80" departLane="best" departSpeed="max" from="E31" to="E30.558"/>
    <trip id="res_truck_int09" type="res_truck_int0_truck" depart="129.60" departLane="best" departSpeed="max" from="E31" to="E18.410"/>
    <trip id="res_truck_int010" type="res_truck_int0_truck" depart="144.00" departLane="best" departSpeed="max" from="E31" to="E30.558"/>
    <trip id="res_truck_int011" type="res_truck_int0_truck" depart="158.40" departLane="best" departSpeed="max" from="E22" to="E18.410"/>
    <trip id="res_truck_int013" type="res_truck_int0_truck" depart="187.20" departLane="best" departSpeed="max" from="E18" to="E18.410"/>
    <trip id="res_truck_int014" type="res_truck_int0_truck" depart="201.60" departLane="best" departSpeed="max" from="E31" to="E30.558"/>
    <trip id="res_truck_int015" type="res_truck_int0_truck" depart="216.00" departLane="best" departSpeed="max" from="E31" to="E30.558"/>
    <trip id="res_truck_int016" type="res_truck_int0_truck" depart="230.40" departLane="best" departSpeed="max" from="E30" to="E31.622"/>
    <trip id="res_truck_int017" type="res_truck_int0_truck" depart="244.80" departLane="best" departSpeed="max" from="E22" to="E30.558"/>
    <trip id="res_truck_int018" type="res_truck_int0_truck" depart="259.20" departLane="best" departSpeed="max" from="E31" to="E30.558"/>
    <trip id="res_truck_int019" type="res_truck_int0_truck" depart="273.60" departLane="best" departSpeed="max" from="E31" to="E30.558"/>
    <trip id="res_truck_int020" type="res_truck_int0_truck" depart="288.00" departLane="best" departSpeed="max" from="E31" to="E18.410"/>
    <trip id="res_truck_int021" type="res_truck_int0_truck" depart="302.40" departLane="best" departSpeed="max" from="E18" to="E22.488"/>
    <trip id="res_truck_int022" type="res_truck_int0_truck" depart="316.80" departLane="best" departSpeed="max" from="E18" to="E18.410"/>
    <trip id="res_truck_int023" type="res_truck_int0_truck" depart="331.20" departLane="best" departSpeed="max" from="E18" to="E22.488"/>
    <trip id="res_truck_int024" type="res_truck_int0_truck" depart="345.60" departLane="best" departSpeed="max" from="E30" to="E22.488"/>

<!-- generated on 2025-08-07 05:47:03.859197 by randomTrips.py v1_22_0+0002-63e50f52594
<configuration>
    <net-file value="osm.net.xml.gz"/>
    <weights-prefix value="random_edge_priority_interval_1"/>
    <output-trip-file value="osm.res_truck.interval_1.trips.xml"/>
    <route-file value="osm.res_truck.interval_1.rou.xml"/>
    <prefix value="res_truck_int1"/>
    <trip-attributes value="departLane=&quot;best&quot;"/>
    <fringe-start-attributes value="departSpeed=&quot;max&quot;"/>
    <vehicle-class value="truck"/>
    <vclass value="truck"/>
    <remove-loops value="True"/>
    <validate value="True"/>
    <begin value="361.0"/>
    <end value="721.0"/>
    <insertion-rate value="250.0"/>
</configuration>
-->

<!-- generated on 2025-08-07 05:47:03 by Eclipse SUMO duarouter Version 1.22.0
<duarouterConfiguration xmlns:xsi="http://www.w3.org/2001/XMLSchema-instance" xsi:noNamespaceSchemaLocation="http://sumo.dlr.de/xsd/duarouterConfiguration.xsd">

    <input>
        <net-file value="osm.net.xml.gz"/>
        <route-files value="osm.res_truck.interval_1.trips.xml"/>
    </input>

    <output>
        <output-file value="osm.res_truck.interval_1.trips.xml.tmp"/>
        <alternatives-output value="NUL"/>
        <write-trips value="true"/>
    </output>

    <processing>
        <remove-loops value="true"/>
    </processing>

    <time>
        <begin value="361.0"/>
        <end value="721.0"/>
    </time>

    <report>
        <no-warnings value="true"/>
        <ignore-errors value="true"/>
        <no-step-log value="true"/>
    </report>

</duarouterConfiguration>
-->

    <vType id="res_truck_int1_truck" vClass="truck"/>
    <trip id="res_truck_int11" type="res_truck_int1_truck" depart="375.40" departLane="best" departSpeed="max" from="E18" to="E18.410"/>
    <trip id="res_truck_int12" type="res_truck_int1_truck" depart="389.80" departLane="best" departSpeed="max" from="E30" to="E30.558"/>
    <trip id="res_truck_int13" type="res_truck_int1_truck" depart="404.20" departLane="best" departSpeed="max" from="E31" to="E18.410"/>
    <trip id="res_truck_int14" type="res_truck_int1_truck" depart="418.60" departLane="best" departSpeed="max" from="E22" to="E18.410"/>
    <trip id="res_truck_int16" type="res_truck_int1_truck" depart="447.40" departLane="best" departSpeed="max" from="E18" to="E18.410"/>
    <trip id="res_truck_int17" type="res_truck_int1_truck" depart="461.80" departLane="best" departSpeed="max" from="E30" to="E30.558"/>
    <trip id="res_truck_int110" type="res_truck_int1_truck" depart="505.00" departLane="best" departSpeed="max" from="E30" to="E30.558"/>
    <trip id="res_truck_int111" type="res_truck_int1_truck" depart="519.40" departLane="best" departSpeed="max" from="E22" to="E18.410"/>
    <trip id="res_truck_int113" type="res_truck_int1_truck" depart="548.20" departLane="best" departSpeed="max" from="E18" to="E18.410"/>
    <trip id="res_truck_int114" type="res_truck_int1_truck" depart="562.60" departLane="best" departSpeed="max" from="E30" to="E30.558"/>
    <trip id="res_truck_int115" type="res_truck_int1_truck" depart="577.00" departLane="best" departSpeed="max" from="E30" to="E30.558"/>
    <trip id="res_truck_int117" type="res_truck_int1_truck" depart="605.80" departLane="best" departSpeed="max" from="E22" to="E30.558"/>
    <trip id="res_truck_int118" type="res_truck_int1_truck" depart="620.20" departLane="best" departSpeed="max" from="E30" to="E30.558"/>
    <trip id="res_truck_int119" type="res_truck_int1_truck" depart="634.60" departLane="best" departSpeed="max" from="E30" to="E30.558"/>
    <trip id="res_truck_int121" type="res_truck_int1_truck" depart="663.40" departLane="best" departSpeed="max" from="E18" to="E22.488"/>
    <trip id="res_truck_int122" type="res_truck_int1_truck" depart="677.80" departLane="best" departSpeed="max" from="E18" to="E18.410"/>
    <trip id="res_truck_int123" type="res_truck_int1_truck" depart="692.20" departLane="best" departSpeed="max" from="E18" to="E22.488"/>
    <trip id="res_truck_int124" type="res_truck_int1_truck" depart="706.60" departLane="best" departSpeed="max" from="E30" to="E22.488"/>

<!-- generated on 2025-08-07 05:47:04.705454 by randomTrips.py v1_22_0+0002-63e50f52594
<configuration>
    <net-file value="osm.net.xml.gz"/>
    <weights-prefix value="random_edge_priority_interval_2"/>
    <output-trip-file value="osm.res_truck.interval_2.trips.xml"/>
    <route-file value="osm.res_truck.interval_2.rou.xml"/>
    <prefix value="res_truck_int2"/>
    <trip-attributes value="departLane=&quot;best&quot;"/>
    <fringe-start-attributes value="departSpeed=&quot;max&quot;"/>
    <vehicle-class value="truck"/>
    <vclass value="truck"/>
    <remove-loops value="True"/>
    <validate value="True"/>
    <begin value="722.0"/>
    <end value="1082.0"/>
    <insertion-rate value="1000.0"/>
</configuration>
-->

<!-- generated on 2025-08-07 05:47:04 by Eclipse SUMO duarouter Version 1.22.0
<duarouterConfiguration xmlns:xsi="http://www.w3.org/2001/XMLSchema-instance" xsi:noNamespaceSchemaLocation="http://sumo.dlr.de/xsd/duarouterConfiguration.xsd">

    <input>
        <net-file value="osm.net.xml.gz"/>
        <route-files value="osm.res_truck.interval_2.trips.xml"/>
    </input>

    <output>
        <output-file value="osm.res_truck.interval_2.trips.xml.tmp"/>
        <alternatives-output value="NUL"/>
        <write-trips value="true"/>
    </output>

    <processing>
        <remove-loops value="true"/>
    </processing>

    <time>
        <begin value="722.0"/>
        <end value="1082.0"/>
    </time>

    <report>
        <no-warnings value="true"/>
        <ignore-errors value="true"/>
        <no-step-log value="true"/>
    </report>

</duarouterConfiguration>
-->

    <vType id="res_truck_int2_truck" vClass="truck"/>
    <trip id="res_truck_int21" type="res_truck_int2_truck" depart="725.60" departLane="best" departSpeed="max" from="E18" to="E18.410"/>
    <trip id="res_truck_int22" type="res_truck_int2_truck" depart="729.20" departLane="best" departSpeed="max" from="E30" to="E30.558"/>
    <trip id="res_truck_int23" type="res_truck_int2_truck" depart="732.80" departLane="best" departSpeed="max" from="E31" to="E18.410"/>
    <trip id="res_truck_int24" type="res_truck_int2_truck" depart="736.40" departLane="best" departSpeed="max" from="E22" to="E18.410"/>
    <trip id="res_truck_int26" type="res_truck_int2_truck" depart="743.60" departLane="best" departSpeed="max" from="E18" to="E18.410"/>
    <trip id="res_truck_int27" type="res_truck_int2_truck" depart="747.20" departLane="best" departSpeed="max" from="E30" to="E30.558"/>
    <trip id="res_truck_int29" type="res_truck_int2_truck" depart="754.40" departLane="best" departSpeed="max" from="E31" to="E18.410"/>
    <trip id="res_truck_int210" type="res_truck_int2_truck" depart="758.00" departLane="best" departSpeed="max" from="E31" to="E30.558"/>
    <trip id="res_truck_int211" type="res_truck_int2_truck" depart="761.60" departLane="best" departSpeed="max" from="E22" to="E18.410"/>
    <trip id="res_truck_int213" type="res_truck_int2_truck" depart="768.80" departLane="best" departSpeed="max" from="E18" to="E18.410"/>
    <trip id="res_truck_int214" type="res_truck_int2_truck" depart="772.40" departLane="best" departSpeed="max" from="E31" to="E30.558"/>
    <trip id="res_truck_int215" type="res_truck_int2_truck" depart="776.00" departLane="best" departSpeed="max" from="E31" to="E30.558"/>
    <trip id="res_truck_int217" type="res_truck_int2_truck" depart="783.20" departLane="best" departSpeed="max" from="E22" to="E30.558"/>
    <trip id="res_truck_int218" type="res_truck_int2_truck" depart="786.80" departLane="best" departSpeed="max" from="E31" to="E30.558"/>
    <trip id="res_truck_int219" type="res_truck_int2_truck" depart="790.40" departLane="best" departSpeed="max" from="E31" to="E30.558"/>
    <trip id="res_truck_int221" type="res_truck_int2_truck" depart="797.60" departLane="best" departSpeed="max" from="E18" to="E22.488"/>
    <trip id="res_truck_int222" type="res_truck_int2_truck" depart="801.20" departLane="best" departSpeed="max" from="E18" to="E18.410"/>
    <trip id="res_truck_int223" type="res_truck_int2_truck" depart="804.80" departLane="best" departSpeed="max" from="E18" to="E22.488"/>
    <trip id="res_truck_int224" type="res_truck_int2_truck" depart="808.40" departLane="best" departSpeed="max" from="E22" to="E22.488"/>
    <trip id="res_truck_int225" type="res_truck_int2_truck" depart="812.00" departLane="best" departSpeed="max" from="E22" to="E18.410"/>
    <trip id="res_truck_int226" type="res_truck_int2_truck" depart="815.60" departLane="best" departSpeed="max" from="E18" to="E31.622"/>
    <trip id="res_truck_int227" type="res_truck_int2_truck" depart="819.20" departLane="best" departSpeed="max" from="E30" to="E30.558"/>
    <trip id="res_truck_int229" type="res_truck_int2_truck" depart="826.40" departLane="best" departSpeed="max" from="E18" to="E22.488"/>
    <trip id="res_truck_int230" type="res_truck_int2_truck" depart="830.00" departLane="best" departSpeed="max" from="E31" to="E30.558"/>
    <trip id="res_truck_int231" type="res_truck_int2_truck" depart="833.60" departLane="best" departSpeed="max" from="E22" to="E30.558"/>
    <trip id="res_truck_int232" type="res_truck_int2_truck" depart="837.20" departLane="best" departSpeed="max" from="E31" to="E31.622"/>
    <trip id="res_truck_int233" type="res_truck_int2_truck" depart="840.80" departLane="best" departSpeed="max" from="E18" to="E18.410"/>
    <trip id="res_truck_int234" type="res_truck_int2_truck" depart="844.40" departLane="best" departSpeed="max" from="E18" to="E22.488"/>
    <trip id="res_truck_int235" type="res_truck_int2_truck" depart="848.00" departLane="best" departSpeed="max" from="E18" to="E31.622"/>
    <trip id="res_truck_int237" type="res_truck_int2_truck" depart="855.20" departLane="best" departSpeed="max" from="E30" to="E22.488"/>
    <trip id="res_truck_int239" type="res_truck_int2_truck" depart="862.40" departLane="best" departSpeed="max" from="E18" to="E18.410"/>
    <trip id="res_truck_int240" type="res_truck_int2_truck" depart="866.00" departLane="best" departSpeed="max" from="E22" to="E22.488"/>
    <trip id="res_truck_int242" type="res_truck_int2_truck" depart="873.20" departLane="best" departSpeed="max" from="E22" to="E18.410"/>
    <trip id="res_truck_int243" type="res_truck_int2_truck" depart="876.80" departLane="best" departSpeed="max" from="E31" to="E30.558"/>
    <trip id="res_truck_int244" type="res_truck_int2_truck" depart="880.40" departLane="best" departSpeed="max" from="E18" to="E18.410"/>
    <trip id="res_truck_int247" type="res_truck_int2_truck" depart="891.20" departLane="best" departSpeed="max" from="E18" to="E22.488"/>
    <trip id="res_truck_int248" type="res_truck_int2_truck" depart="894.80" departLane="best" departSpeed="max" from="E31" to="E30.558"/>
    <trip id="res_truck_int249" type="res_truck_int2_truck" depart="898.40" departLane="best" departSpeed="max" from="E31" to="E31.622"/>
    <trip id="res_truck_int251" type="res_truck_int2_truck" depart="905.60" departLane="best" departSpeed="max" from="E30" to="E30.558"/>
    <trip id="res_truck_int253" type="res_truck_int2_truck" depart="912.80" departLane="best" departSpeed="max" from="E18" to="E22.488"/>
    <trip id="res_truck_int256" type="res_truck_int2_truck" depart="923.60" departLane="best" departSpeed="max" from="E22" to="E18.410"/>
    <trip id="res_truck_int257" type="res_truck_int2_truck" depart="927.20" departLane="best" departSpeed="max" from="E31" to="E31.622"/>
    <trip id="res_truck_int259" type="res_truck_int2_truck" depart="934.40" departLane="best" departSpeed="max" from="E22" to="E18.410"/>
    <trip id="res_truck_int260" type="res_truck_int2_truck" depart="938.00" departLane="best" departSpeed="max" from="E31" to="E30.558"/>
    <trip id="res_truck_int261" type="res_truck_int2_truck" depart="941.60" departLane="best" departSpeed="max" from="E31" to="E30.558"/>
    <trip id="res_truck_int262" type="res_truck_int2_truck" depart="945.20" departLane="best" departSpeed="max" from="E18" to="E22.488"/>
    <trip id="res_truck_int263" type="res_truck_int2_truck" depart="948.80" departLane="best" departSpeed="max" from="E18" to="E31.622"/>
    <trip id="res_truck_int264" type="res_truck_int2_truck" depart="952.40" departLane="best" departSpeed="max" from="E31" to="E31.622"/>
    <trip id="res_truck_int265" type="res_truck_int2_truck" depart="956.00" departLane="best" departSpeed="max" from="E18" to="E18.410"/>
    <trip id="res_truck_int266" type="res_truck_int2_truck" depart="959.60" departLane="best" departSpeed="max" from="E31" to="E31.622"/>
    <trip id="res_truck_int267" type="res_truck_int2_truck" depart="963.20" departLane="best" departSpeed="max" from="E18" to="E22.488"/>
    <trip id="res_truck_int268" type="res_truck_int2_truck" depart="966.80" departLane="best" departSpeed="max" from="E18" to="E31.622"/>
    <trip id="res_truck_int269" type="res_truck_int2_truck" depart="970.40" departLane="best" departSpeed="max" from="E31" to="E18.410"/>
    <trip id="res_truck_int270" type="res_truck_int2_truck" depart="974.00" departLane="best" departSpeed="max" from="E22" to="E30.558"/>
    <trip id="res_truck_int271" type="res_truck_int2_truck" depart="977.60" departLane="best" departSpeed="max" from="E18" to="E31.622"/>
    <trip id="res_truck_int272" type="res_truck_int2_truck" depart="981.20" departLane="best" departSpeed="max" from="E22" to="E18.410"/>
    <trip id="res_truck_int273" type="res_truck_int2_truck" depart="984.80" departLane="best" departSpeed="max" from="E22" to="E30.558"/>
    <trip id="res_truck_int274" type="res_truck_int2_truck" depart="988.40" departLane="best" departSpeed="max" from="E18" to="E22.488"/>
    <trip id="res_truck_int275" type="res_truck_int2_truck" depart="992.00" departLane="best" departSpeed="max" from="E31" to="E30.558"/>
    <trip id="res_truck_int276" type="res_truck_int2_truck" depart="995.60" departLane="best" departSpeed="max" from="E22" to="E30.558"/>
    <trip id="res_truck_int277" type="res_truck_int2_truck" depart="999.20" departLane="best" departSpeed="max" from="E18" to="E18.410"/>
    <trip id="res_truck_int278" type="res_truck_int2_truck" depart="1002.80" departLane="best" departSpeed="max" from="E22" to="E30.558"/>
    <trip id="res_truck_int279" type="res_truck_int2_truck" depart="1006.40" departLane="best" departSpeed="max" from="E18" to="E18.410"/>
    <trip id="res_truck_int281" type="res_truck_int2_truck" depart="1013.60" departLane="best" departSpeed="max" from="E18" to="E31.622"/>
    <trip id="res_truck_int282" type="res_truck_int2_truck" depart="1017.20" departLane="best" departSpeed="max" from="E31" to="E18.410"/>
    <trip id="res_truck_int284" type="res_truck_int2_truck" depart="1024.40" departLane="best" departSpeed="max" from="E18" to="E18.410"/>
    <trip id="res_truck_int285" type="res_truck_int2_truck" depart="1028.00" departLane="best" departSpeed="max" from="E31" to="E30.558"/>
    <trip id="res_truck_int287" type="res_truck_int2_truck" depart="1035.20" departLane="best" departSpeed="max" from="E31" to="E18.410"/>
    <trip id="res_truck_int288" type="res_truck_int2_truck" depart="1038.80" departLane="best" departSpeed="max" from="E18" to="E22.488"/>
    <trip id="res_truck_int289" type="res_truck_int2_truck" depart="1042.40" departLane="best" departSpeed="max" from="E22" to="E22.488"/>
    <trip id="res_truck_int290" type="res_truck_int2_truck" depart="1046.00" departLane="best" departSpeed="max" from="E30" to="E30.558"/>
    <trip id="res_truck_int291" type="res_truck_int2_truck" depart="1049.60" departLane="best" departSpeed="max" from="E31" to="E18.410"/>
    <trip id="res_truck_int292" type="res_truck_int2_truck" depart="1053.20" departLane="best" departSpeed="max" from="E22" to="E22.488"/>
    <trip id="res_truck_int293" type="res_truck_int2_truck" depart="1056.80" departLane="best" departSpeed="max" from="E31" to="E18.410"/>
    <trip id="res_truck_int294" type="res_truck_int2_truck" depart="1060.40" departLane="best" departSpeed="max" from="E18" to="E22.488"/>
    <trip id="res_truck_int295" type="res_truck_int2_truck" depart="1064.00" departLane="best" departSpeed="max" from="E22" to="E22.488"/>
    <trip id="res_truck_int296" type="res_truck_int2_truck" depart="1067.60" departLane="best" departSpeed="max" from="E18" to="E31.622"/>
    <trip id="res_truck_int298" type="res_truck_int2_truck" depart="1074.80" departLane="best" departSpeed="max" from="E22" to="E18.410"/>
    <trip id="res_truck_int299" type="res_truck_int2_truck" depart="1078.40" departLane="best" departSpeed="max" from="E31" to="E31.622"/>

<!-- generated on 2025-08-07 05:47:05.427502 by randomTrips.py v1_22_0+0002-63e50f52594
<configuration>
    <net-file value="osm.net.xml.gz"/>
    <weights-prefix value="random_edge_priority_interval_3"/>
    <output-trip-file value="osm.res_truck.interval_3.trips.xml"/>
    <route-file value="osm.res_truck.interval_3.rou.xml"/>
    <prefix value="res_truck_int3"/>
    <trip-attributes value="departLane=&quot;best&quot;"/>
    <fringe-start-attributes value="departSpeed=&quot;max&quot;"/>
    <vehicle-class value="truck"/>
    <vclass value="truck"/>
    <remove-loops value="True"/>
    <validate value="True"/>
    <begin value="1083.0"/>
    <end value="1443.0"/>
    <insertion-rate value="250.0"/>
</configuration>
-->

<!-- generated on 2025-08-07 05:47:05 by Eclipse SUMO duarouter Version 1.22.0
<duarouterConfiguration xmlns:xsi="http://www.w3.org/2001/XMLSchema-instance" xsi:noNamespaceSchemaLocation="http://sumo.dlr.de/xsd/duarouterConfiguration.xsd">

    <input>
        <net-file value="osm.net.xml.gz"/>
        <route-files value="osm.res_truck.interval_3.trips.xml"/>
    </input>

    <output>
        <output-file value="osm.res_truck.interval_3.trips.xml.tmp"/>
        <alternatives-output value="NUL"/>
        <write-trips value="true"/>
    </output>

    <processing>
        <remove-loops value="true"/>
    </processing>

    <time>
        <begin value="1083.0"/>
        <end value="1443.0"/>
    </time>

    <report>
        <no-warnings value="true"/>
        <ignore-errors value="true"/>
        <no-step-log value="true"/>
    </report>

</duarouterConfiguration>
-->

    <vType id="res_truck_int3_truck" vClass="truck"/>
    <trip id="res_truck_int31" type="res_truck_int3_truck" depart="1097.40" departLane="best" departSpeed="max" from="E22" to="E18.410"/>
    <trip id="res_truck_int32" type="res_truck_int3_truck" depart="1111.80" departLane="best" departSpeed="max" from="E30" to="E30.558"/>
    <trip id="res_truck_int33" type="res_truck_int3_truck" depart="1126.20" departLane="best" departSpeed="max" from="E31" to="E18.410"/>
    <trip id="res_truck_int35" type="res_truck_int3_truck" depart="1155.00" departLane="best" departSpeed="max" from="E22" to="E30.558"/>
    <trip id="res_truck_int36" type="res_truck_int3_truck" depart="1169.40" departLane="best" departSpeed="max" from="E18" to="E18.410"/>
    <trip id="res_truck_int37" type="res_truck_int3_truck" depart="1183.80" departLane="best" departSpeed="max" from="E30" to="E30.558"/>
    <trip id="res_truck_int38" type="res_truck_int3_truck" depart="1198.20" departLane="best" departSpeed="max" from="E22" to="E30.558"/>
    <trip id="res_truck_int39" type="res_truck_int3_truck" depart="1212.60" departLane="best" departSpeed="max" from="E31" to="E18.410"/>
    <trip id="res_truck_int310" type="res_truck_int3_truck" depart="1227.00" departLane="best" departSpeed="max" from="E31" to="E30.558"/>
    <trip id="res_truck_int311" type="res_truck_int3_truck" depart="1241.40" departLane="best" departSpeed="max" from="E22" to="E18.410"/>
    <trip id="res_truck_int313" type="res_truck_int3_truck" depart="1270.20" departLane="best" departSpeed="max" from="E18" to="E18.410"/>
    <trip id="res_truck_int314" type="res_truck_int3_truck" depart="1284.60" departLane="best" departSpeed="max" from="E31" to="E30.558"/>
    <trip id="res_truck_int315" type="res_truck_int3_truck" depart="1299.00" departLane="best" departSpeed="max" from="E31" to="E30.558"/>
    <trip id="res_truck_int316" type="res_truck_int3_truck" depart="1313.40" departLane="best" departSpeed="max" from="E30" to="E31.622"/>
    <trip id="res_truck_int317" type="res_truck_int3_truck" depart="1327.80" departLane="best" departSpeed="max" from="E22" to="E30.558"/>
    <trip id="res_truck_int318" type="res_truck_int3_truck" depart="1342.20" departLane="best" departSpeed="max" from="E31" to="E30.558"/>
    <trip id="res_truck_int319" type="res_truck_int3_truck" depart="1356.60" departLane="best" departSpeed="max" from="E31" to="E30.558"/>
    <trip id="res_truck_int321" type="res_truck_int3_truck" depart="1385.40" departLane="best" departSpeed="max" from="E22" to="E22.488"/>
    <trip id="res_truck_int322" type="res_truck_int3_truck" depart="1399.80" departLane="best" departSpeed="max" from="E18" to="E18.410"/>
    <trip id="res_truck_int323" type="res_truck_int3_truck" depart="1414.20" departLane="best" departSpeed="max" from="E22" to="E22.488"/>
    <trip id="res_truck_int324" type="res_truck_int3_truck" depart="1428.60" departLane="best" departSpeed="max" from="E30" to="E22.488"/>

<!-- generated on 2025-08-07 05:47:06.288940 by randomTrips.py v1_22_0+0002-63e50f52594
<configuration>
    <net-file value="osm.net.xml.gz"/>
    <weights-prefix value="random_edge_priority_interval_4"/>
    <output-trip-file value="osm.res_truck.interval_4.trips.xml"/>
    <route-file value="osm.res_truck.interval_4.rou.xml"/>
    <prefix value="res_truck_int4"/>
    <trip-attributes value="departLane=&quot;best&quot;"/>
    <fringe-start-attributes value="departSpeed=&quot;max&quot;"/>
    <vehicle-class value="truck"/>
    <vclass value="truck"/>
    <remove-loops value="True"/>
    <validate value="True"/>
    <begin value="1444.0"/>
    <end value="1804.0"/>
    <insertion-rate value="250.0"/>
</configuration>
-->

<!-- generated on 2025-08-07 05:47:06 by Eclipse SUMO duarouter Version 1.22.0
<duarouterConfiguration xmlns:xsi="http://www.w3.org/2001/XMLSchema-instance" xsi:noNamespaceSchemaLocation="http://sumo.dlr.de/xsd/duarouterConfiguration.xsd">

    <input>
        <net-file value="osm.net.xml.gz"/>
        <route-files value="osm.res_truck.interval_4.trips.xml"/>
    </input>

    <output>
        <output-file value="osm.res_truck.interval_4.trips.xml.tmp"/>
        <alternatives-output value="NUL"/>
        <write-trips value="true"/>
    </output>

    <processing>
        <remove-loops value="true"/>
    </processing>

    <time>
        <begin value="1444.0"/>
        <end value="1804.0"/>
    </time>

    <report>
        <no-warnings value="true"/>
        <ignore-errors value="true"/>
        <no-step-log value="true"/>
    </report>

</duarouterConfiguration>
-->

    <vType id="res_truck_int4_truck" vClass="truck"/>
    <trip id="res_truck_int41" type="res_truck_int4_truck" depart="1458.40" departLane="best" departSpeed="max" from="E22" to="E18.410"/>
    <trip id="res_truck_int42" type="res_truck_int4_truck" depart="1472.80" departLane="best" departSpeed="max" from="E30" to="E30.558"/>
    <trip id="res_truck_int43" type="res_truck_int4_truck" depart="1487.20" departLane="best" departSpeed="max" from="E31" to="E18.410"/>
    <trip id="res_truck_int44" type="res_truck_int4_truck" depart="1501.60" departLane="best" departSpeed="max" from="E22" to="E18.410"/>
    <trip id="res_truck_int45" type="res_truck_int4_truck" depart="1516.00" departLane="best" departSpeed="max" from="E22" to="E30.558"/>
    <trip id="res_truck_int46" type="res_truck_int4_truck" depart="1530.40" departLane="best" departSpeed="max" from="E18" to="E18.410"/>
    <trip id="res_truck_int47" type="res_truck_int4_truck" depart="1544.80" departLane="best" departSpeed="max" from="E30" to="E30.558"/>
    <trip id="res_truck_int48" type="res_truck_int4_truck" depart="1559.20" departLane="best" departSpeed="max" from="E22" to="E30.558"/>
    <trip id="res_truck_int410" type="res_truck_int4_truck" depart="1588.00" departLane="best" departSpeed="max" from="E30" to="E30.558"/>
    <trip id="res_truck_int411" type="res_truck_int4_truck" depart="1602.40" departLane="best" departSpeed="max" from="E22" to="E18.410"/>
    <trip id="res_truck_int413" type="res_truck_int4_truck" depart="1631.20" departLane="best" departSpeed="max" from="E18" to="E18.410"/>
    <trip id="res_truck_int414" type="res_truck_int4_truck" depart="1645.60" departLane="best" departSpeed="max" from="E30" to="E30.558"/>
    <trip id="res_truck_int415" type="res_truck_int4_truck" depart="1660.00" departLane="best" departSpeed="max" from="E30" to="E30.558"/>
    <trip id="res_truck_int416" type="res_truck_int4_truck" depart="1674.40" departLane="best" departSpeed="max" from="E30" to="E31.622"/>
    <trip id="res_truck_int417" type="res_truck_int4_truck" depart="1688.80" departLane="best" departSpeed="max" from="E22" to="E30.558"/>
    <trip id="res_truck_int418" type="res_truck_int4_truck" depart="1703.20" departLane="best" departSpeed="max" from="E30" to="E30.558"/>
    <trip id="res_truck_int419" type="res_truck_int4_truck" depart="1717.60" departLane="best" departSpeed="max" from="E30" to="E30.558"/>
    <trip id="res_truck_int421" type="res_truck_int4_truck" depart="1746.40" departLane="best" departSpeed="max" from="E22" to="E22.488"/>
    <trip id="res_truck_int422" type="res_truck_int4_truck" depart="1760.80" departLane="best" departSpeed="max" from="E18" to="E18.410"/>