<?xml version="1.0" encoding="UTF-8"?>

<!-- generated on 2025-07-31 11:10:26.504042 by randomTrips.py v1_23_1+0000-676720d13f6
<configuration>
    <net-file value="osm.net.xml.gz"/>
    <weights-prefix value="random_edge_priority_interval_0"/>
    <output-trip-file value="osm.res_bike.interval_0.trips.xml"/>
    <prefix value="res_bike_int0"/>
    <trip-attributes value="departLane='best'"/>
    <fringe-start-attributes value="departSpeed='max'"/>
    <vehicle-class value="bicycle"/>
    <vclass value="bicycle"/>
    <remove-loops value="True"/>
    <validate value="True"/>
    <end value="360.0"/>
    <insertion-rate value="70.0"/>
</configuration>
-->

<!-- generated on 2025-07-31 11:10:26 by Eclipse SUMO duarouter Version 1.23.1
<duarouterConfiguration xmlns:xsi="http://www.w3.org/2001/XMLSchema-instance" xsi:noNamespaceSchemaLocation="http://sumo.dlr.de/xsd/duarouterConfiguration.xsd">

    <input>
        <net-file value="osm.net.xml.gz"/>
        <route-files value="osm.res_bike.interval_0.trips.xml"/>
    </input>

    <output>
        <output-file value="osm.res_bike.interval_0.trips.xml.tmp"/>
        <alternatives-output value="NUL"/>
        <write-trips value="true"/>
    </output>

    <processing>
        <remove-loops value="true"/>
    </processing>

    <time>
        <begin value="0.0"/>
        <end value="360.0"/>
    </time>

    <report>
        <no-warnings value="true"/>
        <ignore-errors value="true"/>
        <no-step-log value="true"/>
    </report>

</duarouterConfiguration>
-->

<routes xmlns:xsi="http://www.w3.org/2001/XMLSchema-instance" xsi:noNamespaceSchemaLocation="http://sumo.dlr.de/xsd/routes_file.xsd">
    <vType id="res_bike_int0_bicycle" vClass="bicycle"/>
    <trip id="res_bike_int02" type="res_bike_int0_bicycle" depart="102.86" departLane="best" departSpeed="max" from="E31" to="E30.558"/>
    <trip id="res_bike_int03" type="res_bike_int0_bicycle" depart="154.29" departLane="best" departSpeed="max" from="E31" to="E18.410"/>
    <trip id="res_bike_int05" type="res_bike_int0_bicycle" depart="257.14" departLane="best" departSpeed="max" from="E22" to="E30.558"/>
    <trip id="res_bike_int06" type="res_bike_int0_bicycle" depart="308.57" departLane="best" departSpeed="max" from="E18" to="E18.410"/>
</routes>
