<routes>

<!-- generated on 2025-07-30 17:25:26.314951 by randomTrips.py v1_23_1+0000-676720d13f6
<configuration>
    <net-file value="osm.net.xml.gz"/>
    <weights-prefix value="random_edge_priority_interval_0"/>
    <output-trip-file value="osm.res_ped.interval_0.trips.xml"/>
    <prefix value="res_ped_int0"/>
    <trip-attributes value="departLane='best'"/>
    <fringe-start-attributes value="departSpeed='max'"/>
    <vclass value="pedestrian"/>
    <via-edge-types value="footway,path,sidewalk"/>
    <remove-loops value="True"/>
    <validate value="True"/>
    <end value="360.0"/>
    <insertion-rate value="100.0"/>
</configuration>
-->

<!-- generated on 2025-07-30 17:25:26 by Eclipse SUMO duarouter Version 1.23.1
<duarouterConfiguration xmlns:xsi="http://www.w3.org/2001/XMLSchema-instance" xsi:noNamespaceSchemaLocation="http://sumo.dlr.de/xsd/duarouterConfiguration.xsd">

    <input>
        <net-file value="osm.net.xml.gz"/>
        <route-files value="osm.res_ped.interval_0.trips.xml"/>
    </input>

    <output>
        <output-file value="osm.res_ped.interval_0.trips.xml.tmp"/>
        <alternatives-output value="NUL"/>
        <write-trips value="true"/>
    </output>

    <processing>
        <remove-loops value="true"/>
    </processing>

    <time>
        <begin value="0.0"/>
        <end value="360.0"/>
    </time>

    <report>
        <no-warnings value="true"/>
        <ignore-errors value="true"/>
        <no-step-log value="true"/>
    </report>

</duarouterConfiguration>
-->

    <trip id="res_ped_int01" depart="36.00" departLane="best" departSpeed="max" from="E22" to="E18.410"/>
    <trip id="res_ped_int02" depart="72.00" departLane="best" departSpeed="max" from="E30" to="E30.558"/>
    <trip id="res_ped_int03" depart="108.00" departLane="best" departSpeed="max" from="E31" to="E18.410"/>
    <trip id="res_ped_int04" depart="144.00" departLane="best" departSpeed="max" from="E22" to="E18.410"/>
    <trip id="res_ped_int06" depart="216.00" departLane="best" departSpeed="max" from="E18" to="E18.410"/>
    <trip id="res_ped_int07" depart="252.00" departLane="best" departSpeed="max" from="E30" to="E30.558"/>
    <trip id="res_ped_int09" depart="324.00" departLane="best" departSpeed="max" from="E31" to="E18.410"/>

<!-- generated on 2025-07-30 17:25:27.177031 by randomTrips.py v1_23_1+0000-676720d13f6
<configuration>
    <net-file value="osm.net.xml.gz"/>
    <weights-prefix value="random_edge_priority_interval_1"/>
    <output-trip-file value="osm.res_ped.interval_1.trips.xml"/>
    <prefix value="res_ped_int1"/>
    <trip-attributes value="departLane='best'"/>
    <fringe-start-attributes value="departSpeed='max'"/>
    <vclass value="pedestrian"/>
    <via-edge-types value="footway,path,sidewalk"/>
    <remove-loops value="True"/>
    <validate value="True"/>
    <begin value="361.0"/>
    <end value="721.0"/>
    <insertion-rate value="100.0"/>
</configuration>
-->

<!-- generated on 2025-07-30 17:25:27 by Eclipse SUMO duarouter Version 1.23.1
<duarouterConfiguration xmlns:xsi="http://www.w3.org/2001/XMLSchema-instance" xsi:noNamespaceSchemaLocation="http://sumo.dlr.de/xsd/duarouterConfiguration.xsd">

    <input>
        <net-file value="osm.net.xml.gz"/>
        <route-files value="osm.res_ped.interval_1.trips.xml"/>
    </input>

    <output>
        <output-file value="osm.res_ped.interval_1.trips.xml.tmp"/>
        <alternatives-output value="NUL"/>
        <write-trips value="true"/>
    </output>

    <processing>
        <remove-loops value="true"/>
    </processing>

    <time>
        <begin value="361.0"/>
        <end value="721.0"/>
    </time>

    <report>
        <no-warnings value="true"/>
        <ignore-errors value="true"/>
        <no-step-log value="true"/>
    </report>

</duarouterConfiguration>
-->

    <trip id="res_ped_int11" depart="397.00" departLane="best" departSpeed="max" from="E22" to="E18.410"/>
    <trip id="res_ped_int12" depart="433.00" departLane="best" departSpeed="max" from="E30" to="E30.558"/>
    <trip id="res_ped_int13" depart="469.00" departLane="best" departSpeed="max" from="E31" to="E18.410"/>
    <trip id="res_ped_int14" depart="505.00" departLane="best" departSpeed="max" from="E22" to="E18.410"/>
    <trip id="res_ped_int16" depart="577.00" departLane="best" departSpeed="max" from="E18" to="E18.410"/>
    <trip id="res_ped_int17" depart="613.00" departLane="best" departSpeed="max" from="E30" to="E30.558"/>
    <trip id="res_ped_int19" depart="685.00" departLane="best" departSpeed="max" from="E31" to="E18.410"/>

<!-- generated on 2025-07-30 17:25:28.436571 by randomTrips.py v1_23_1+0000-676720d13f6
<configuration>
    <net-file value="osm.net.xml.gz"/>
    <weights-prefix value="random_edge_priority_interval_2"/>
    <output-trip-file value="osm.res_ped.interval_2.trips.xml"/>
    <prefix value="res_ped_int2"/>
    <trip-attributes value="departLane='best'"/>
    <fringe-start-attributes value="departSpeed='max'"/>
    <vclass value="pedestrian"/>
    <via-edge-types value="footway,path,sidewalk"/>
    <remove-loops value="True"/>
    <validate value="True"/>
    <begin value="722.0"/>
    <end value="1082.0"/>
    <insertion-rate value="100.0"/>
</configuration>
-->

<!-- generated on 2025-07-30 17:25:28 by Eclipse SUMO duarouter Version 1.23.1
<duarouterConfiguration xmlns:xsi="http://www.w3.org/2001/XMLSchema-instance" xsi:noNamespaceSchemaLocation="http://sumo.dlr.de/xsd/duarouterConfiguration.xsd">

    <input>
        <net-file value="osm.net.xml.gz"/>
        <route-files value="osm.res_ped.interval_2.trips.xml"/>
    </input>

    <output>
        <output-file value="osm.res_ped.interval_2.trips.xml.tmp"/>
        <alternatives-output value="NUL"/>
        <write-trips value="true"/>
    </output>

    <processing>
        <remove-loops value="true"/>
    </processing>

    <time>
        <begin value="722.0"/>
        <end value="1082.0"/>
    </time>

    <report>
        <no-warnings value="true"/>
        <ignore-errors value="true"/>
        <no-step-log value="true"/>
    </report>

</duarouterConfiguration>
-->

    <trip id="res_ped_int21" depart="758.00" departLane="best" departSpeed="max" from="E22" to="E18.410"/>
    <trip id="res_ped_int22" depart="794.00" departLane="best" departSpeed="max" from="E30" to="E30.558"/>
    <trip id="res_ped_int23" depart="830.00" departLane="best" departSpeed="max" from="E31" to="E18.410"/>
    <trip id="res_ped_int24" depart="866.00" departLane="best" departSpeed="max" from="E22" to="E18.410"/>
    <trip id="res_ped_int26" depart="938.00" departLane="best" departSpeed="max" from="E18" to="E18.410"/>
    <trip id="res_ped_int27" depart="974.00" departLane="best" departSpeed="max" from="E30" to="E30.558"/>
    <trip id="res_ped_int29" depart="1046.00" departLane="best" departSpeed="max" from="E31" to="E18.410"/>

<!-- generated on 2025-07-30 17:25:29.502323 by randomTrips.py v1_23_1+0000-676720d13f6
<configuration>
    <net-file value="osm.net.xml.gz"/>
    <weights-prefix value="random_edge_priority_interval_3"/>
    <output-trip-file value="osm.res_ped.interval_3.trips.xml"/>
    <prefix value="res_ped_int3"/>
    <trip-attributes value="departLane='best'"/>
    <fringe-start-attributes value="departSpeed='max'"/>
    <vclass value="pedestrian"/>
    <via-edge-types value="footway,path,sidewalk"/>
    <remove-loops value="True"/>
    <validate value="True"/>
    <begin value="1083.0"/>
    <end value="1443.0"/>
    <insertion-rate value="100.0"/>
</configuration>
-->

<!-- generated on 2025-07-30 17:25:29 by Eclipse SUMO duarouter Version 1.23.1
<duarouterConfiguration xmlns:xsi="http://www.w3.org/2001/XMLSchema-instance" xsi:noNamespaceSchemaLocation="http://sumo.dlr.de/xsd/duarouterConfiguration.xsd">

    <input>
        <net-file value="osm.net.xml.gz"/>
        <route-files value="osm.res_ped.interval_3.trips.xml"/>
    </input>

    <output>
        <output-file value="osm.res_ped.interval_3.trips.xml.tmp"/>
        <alternatives-output value="NUL"/>
        <write-trips value="true"/>
    </output>

    <processing>
        <remove-loops value="true"/>
    </processing>

    <time>
        <begin value="1083.0"/>
        <end value="1443.0"/>
    </time>

    <report>
        <no-warnings value="true"/>
        <ignore-errors value="true"/>
        <no-step-log value="true"/>
    </report>

</duarouterConfiguration>
-->

    <trip id="res_ped_int31" depart="1119.00" departLane="best" departSpeed="max" from="E22" to="E18.410"/>
    <trip id="res_ped_int32" depart="1155.00" departLane="best" departSpeed="max" from="E30" to="E30.558"/>
    <trip id="res_ped_int33" depart="1191.00" departLane="best" departSpeed="max" from="E31" to="E18.410"/>
    <trip id="res_ped_int34" depart="1227.00" departLane="best" departSpeed="max" from="E22" to="E18.410"/>
    <trip id="res_ped_int36" depart="1299.00" departLane="best" departSpeed="max" from="E18" to="E18.410"/>
    <trip id="res_ped_int37" depart="1335.00" departLane="best" departSpeed="max" from="E30" to="E30.558"/>
    <trip id="res_ped_int39" depart="1407.00" departLane="best" departSpeed="max" from="E31" to="E18.410"/>

<!-- generated on 2025-07-30 17:25:30.436032 by randomTrips.py v1_23_1+0000-676720d13f6
<configuration>
    <net-file value="osm.net.xml.gz"/>
    <weights-prefix value="random_edge_priority_interval_4"/>
    <output-trip-file value="osm.res_ped.interval_4.trips.xml"/>
    <prefix value="res_ped_int4"/>
    <trip-attributes value="departLane='best'"/>
    <fringe-start-attributes value="departSpeed='max'"/>
    <vclass value="pedestrian"/>
    <via-edge-types value="footway,path,sidewalk"/>
    <remove-loops value="True"/>
    <validate value="True"/>
    <begin value="1444.0"/>
    <end value="1804.0"/>
    <insertion-rate value="100.0"/>
</configuration>
-->

<!-- generated on 2025-07-30 17:25:30 by Eclipse SUMO duarouter Version 1.23.1
<duarouterConfiguration xmlns:xsi="http://www.w3.org/2001/XMLSchema-instance" xsi:noNamespaceSchemaLocation="http://sumo.dlr.de/xsd/duarouterConfiguration.xsd">

    <input>
        <net-file value="osm.net.xml.gz"/>
        <route-files value="osm.res_ped.interval_4.trips.xml"/>
    </input>

    <output>
        <output-file value="osm.res_ped.interval_4.trips.xml.tmp"/>
        <alternatives-output value="NUL"/>
        <write-trips value="true"/>
    </output>

    <processing>
        <remove-loops value="true"/>
    </processing>

    <time>
        <begin value="1444.0"/>
        <end value="1804.0"/>
    </time>

    <report>
        <no-warnings value="true"/>
        <ignore-errors value="true"/>
        <no-step-log value="true"/>
    </report>

</duarouterConfiguration>
-->

    <trip id="res_ped_int41" depart="1480.00" departLane="best" departSpeed="max" from="E22" to="E18.410"/>
    <trip id="res_ped_int42" depart="1516.00" departLane="best" departSpeed="max" from="E30" to="E30.558"/>
    <trip id="res_ped_int43" depart="1552.00" departLane="best" departSpeed="max" from="E31" to="E18.410"/>
    <trip id="res_ped_int44" depart="1588.00" departLane="best" departSpeed="max" from="E22" to="E18.410"/>
    <trip id="res_ped_int46" depart="1660.00" departLane="best" departSpeed="max" from="E18" to="E18.410"/>
    <trip id="res_ped_int47" depart="1696.00" departLane="best" departSpeed="max" from="E30" to="E30.558"/>
    <trip id="res_ped_int49" depart="1768.00" departLane="best" departSpeed="max" from="E31" to="E18.410"/>

<!-- generated on 2025-07-30 17:25:31.301379 by randomTrips.py v1_23_1+0000-676720d13f6
<configuration>
    <net-file value="osm.net.xml.gz"/>
    <weights-prefix value="random_edge_priority_interval_5"/>
    <output-trip-file value="osm.res_ped.interval_5.trips.xml"/>
    <prefix value="res_ped_int5"/>
    <trip-attributes value="departLane='best'"/>
    <fringe-start-attributes value="departSpeed='max'"/>
    <vclass value="pedestrian"/>
    <via-edge-types value="footway,path,sidewalk"/>
    <remove-loops value="True"/>
    <validate value="True"/>
    <begin value="1805.0"/>
    <end value="2165.0"/>
    <insertion-rate value="400.0"/>
</configuration>
-->

<!-- generated on 2025-07-30 17:25:31 by Eclipse SUMO duarouter Version 1.23.1
<duarouterConfiguration xmlns:xsi="http://www.w3.org/2001/XMLSchema-instance" xsi:noNamespaceSchemaLocation="http://sumo.dlr.de/xsd/duarouterConfiguration.xsd">

    <input>
        <net-file value="osm.net.xml.gz"/>
        <route-files value="osm.res_ped.interval_5.trips.xml"/>
    </input>

    <output>
        <output-file value="osm.res_ped.interval_5.trips.xml.tmp"/>
        <alternatives-output value="NUL"/>
        <write-trips value="true"/>
    </output>

    <processing>
        <remove-loops value="true"/>
    </processing>

    <time>
        <begin value="1805.0"/>
        <end value="2165.0"/>
    </time>

    <report>
        <no-warnings value="true"/>
        <ignore-errors value="true"/>
        <no-step-log value="true"/>
    </report>

</duarouterConfiguration>
-->

    <trip id="res_ped_int51" depart="1814.00" departLane="best" departSpeed="max" from="E22" to="E18.410"/>
    <trip id="res_ped_int52" depart="1823.00" departLane="best" departSpeed="max" from="E30" to="E30.558"/>
    <trip id="res_ped_int53" depart="1832.00" departLane="best" departSpeed="max" from="E31" to="E18.410"/>
    <trip id="res_ped_int54" depart="1841.00" departLane="best" departSpeed="max" from="E22" to="E18.410"/>
    <trip id="res_ped_int56" depart="1859.00" departLane="best" departSpeed="max" from="E18" to="E18.410"/>
    <trip id="res_ped_int57" depart="1868.00" departLane="best" departSpeed="max" from="E30" to="E30.558"/>
    <trip id="res_ped_int59" depart="1886.00" departLane="best" departSpeed="max" from="E31" to="E18.410"/>
    <trip id="res_ped_int510" depart="1895.00" departLane="best" departSpeed="max" from="E31" to="E30.558"/>
    <trip id="res_ped_int511" depart="1904.00" departLane="best" departSpeed="max" from="E22" to="E18.410"/>
    <trip id="res_ped_int513" depart="1922.00" departLane="best" departSpeed="max" from="E18" to="E18.410"/>
    <trip id="res_ped_int514" depart="1931.00" departLane="best" departSpeed="max" from="E31" to="E30.558"/>
    <trip id="res_ped_int515" depart="1940.00" departLane="best" departSpeed="max" from="E31" to="E30.558"/>
    <trip id="res_ped_int516" depart="1949.00" departLane="best" departSpeed="max" from="E30" to="E31.622"/>
    <trip id="res_ped_int517" depart="1958.00" departLane="best" departSpeed="max" from="E22" to="E30.558"/>
    <trip id="res_ped_int518" depart="1967.00" departLane="best" departSpeed="max" from="E31" to="E30.558"/>
    <trip id="res_ped_int519" depart="1976.00" departLane="best" departSpeed="max" from="E31" to="E30.558"/>
    <trip id="res_ped_int521" depart="1994.00" departLane="best" departSpeed="max" from="E18" to="E22.488"/>
    <trip id="res_ped_int522" depart="2003.00" departLane="best" departSpeed="max" from="E18" to="E18.410"/>
    <trip id="res_ped_int523" depart="2012.00" departLane="best" departSpeed="max" from="E18" to="E22.488"/>
    <trip id="res_ped_int524" depart="2021.00" departLane="best" departSpeed="max" from="E30" to="E22.488"/>
    <trip id="res_ped_int525" depart="2030.00" departLane="best" departSpeed="max" from="E22" to="E18.410"/>
    <trip id="res_ped_int527" depart="2048.00" departLane="best" departSpeed="max" from="E30" to="E30.558"/>
    <trip id="res_ped_int529" depart="2066.00" departLane="best" departSpeed="max" from="E18" to="E22.488"/>
    <trip id="res_ped_int530" depart="2075.00" departLane="best" departSpeed="max" from="E31" to="E30.558"/>
    <trip id="res_ped_int531" depart="2084.00" departLane="best" departSpeed="max" from="E30" to="E30.558"/>
    <trip id="res_ped_int532" depart="2093.00" departLane="best" departSpeed="max" from="E31" to="E31.622"/>
    <trip id="res_ped_int533" depart="2102.00" departLane="best" departSpeed="max" from="E18" to="E18.410"/>
    <trip id="res_ped_int534" depart="2111.00" departLane="best" departSpeed="max" from="E22" to="E22.488"/>
    <trip id="res_ped_int535" depart="2120.00" departLane="best" departSpeed="max" from="E18" to="E31.622"/>
    <trip id="res_ped_int537" depart="2138.00" departLane="best" departSpeed="max" from="E30" to="E22.488"/>
    <trip id="res_ped_int539" depart="2156.00" departLane="best" departSpeed="max" from="E22" to="E18.410"/>

<!-- generated on 2025-07-30 17:25:32.148838 by randomTrips.py v1_23_1+0000-676720d13f6
<configuration>
    <net-file value="osm.net.xml.gz"/>
    <weights-prefix value="random_edge_priority_interval_6"/>
    <output-trip-file value="osm.res_ped.interval_6.trips.xml"/>
    <prefix value="res_ped_int6"/>
    <trip-attributes value="departLane='best'"/>
    <fringe-start-attributes value="departSpeed='max'"/>
    <vclass value="pedestrian"/>
    <via-edge-types value="footway,path,sidewalk"/>
    <remove-loops value="True"/>
    <validate value="True"/>
    <begin value="2166.0"/>
    <end value="2526.0"/>
    <insertion-rate value="100.0"/>
</configuration>
-->

<!-- generated on 2025-07-30 17:25:32 by Eclipse SUMO duarouter Version 1.23.1
<duarouterConfiguration xmlns:xsi="http://www.w3.org/2001/XMLSchema-instance" xsi:noNamespaceSchemaLocation="http://sumo.dlr.de/xsd/duarouterConfiguration.xsd">

    <input>
        <net-file value="osm.net.xml.gz"/>
        <route-files value="osm.res_ped.interval_6.trips.xml"/>
    </input>

    <output>
        <output-file value="osm.res_ped.interval_6.trips.xml.tmp"/>
        <alternatives-output value="NUL"/>
        <write-trips value="true"/>
    </output>

    <processing>
        <remove-loops value="true"/>
    </processing>

    <time>
        <begin value="2166.0"/>
        <end value="2526.0"/>
    </time>

    <report>
        <no-warnings value="true"/>
        <ignore-errors value="true"/>
        <no-step-log value="true"/>
    </report>

</duarouterConfiguration>
-->

    <trip id="res_ped_int61" depart="2202.00" departLane="best" departSpeed="max" from="E22" to="E18.410"/>
    <trip id="res_ped_int62" depart="2238.00" departLane="best" departSpeed="max" from="E30" to="E30.558"/>
    <trip id="res_ped_int63" depart="2274.00" departLane="best" departSpeed="max" from="E31" to="E18.410"/>
    <trip id="res_ped_int64" depart="2310.00" departLane="best" departSpeed="max" from="E22" to="E18.410"/>
    <trip id="res_ped_int66" depart="2382.00" departLane="best" departSpeed="max" from="E18" to="E18.410"/>
    <trip id="res_ped_int67" depart="2418.00" departLane="best" departSpeed="max" from="E30" to="E30.558"/>
    <trip id="res_ped_int69" depart="2490.00" departLane="best" departSpeed="max" from="E31" to="E18.410"/>

<!-- generated on 2025-07-30 17:25:33.051227 by randomTrips.py v1_23_1+0000-676720d13f6
<configuration>
    <net-file value="osm.net.xml.gz"/>
    <weights-prefix value="random_edge_priority_interval_7"/>
    <output-trip-file value="osm.res_ped.interval_7.trips.xml"/>
    <prefix value="res_ped_int7"/>
    <trip-attributes value="departLane='best'"/>
    <fringe-start-attributes value="departSpeed='max'"/>
    <vclass value="pedestrian"/>
    <via-edge-types value="footway,path,sidewalk"/>
    <remove-loops value="True"/>
    <validate value="True"/>
    <begin value="2527.0"/>
    <end value="2887.0"/>
    <insertion-rate value="100.0"/>
</configuration>
-->

<!-- generated on 2025-07-30 17:25:32 by Eclipse SUMO duarouter Version 1.23.1
<duarouterConfiguration xmlns:xsi="http://www.w3.org/2001/XMLSchema-instance" xsi:noNamespaceSchemaLocation="http://sumo.dlr.de/xsd/duarouterConfiguration.xsd">

    <input>
        <net-file value="osm.net.xml.gz"/>
        <route-files value="osm.res_ped.interval_7.trips.xml"/>
    </input>

    <output>
        <output-file value="osm.res_ped.interval_7.trips.xml.tmp"/>
        <alternatives-output value="NUL"/>
        <write-trips value="true"/>
    </output>

    <processing>
        <remove-loops value="true"/>
    </processing>

    <time>
        <begin value="2527.0"/>
        <end value="2887.0"/>
    </time>

    <report>
        <no-warnings value="true"/>
        <ignore-errors value="true"/>
        <no-step-log value="true"/>
    </report>

</duarouterConfiguration>
-->

    <trip id="res_ped_int71" depart="2563.00" departLane="best" departSpeed="max" from="E22" to="E18.410"/>
    <trip id="res_ped_int72" depart="2599.00" departLane="best" departSpeed="max" from="E30" to="E30.558"/>
    <trip id="res_ped_int73" depart="2635.00" departLane="best" departSpeed="max" from="E31" to="E18.410"/>
    <trip id="res_ped_int74" depart="2671.00" departLane="best" departSpeed="max" from="E22" to="E18.410"/>
    <trip id="res_ped_int76" depart="2743.00" departLane="best" departSpeed="max" from="E18" to="E18.410"/>
    <trip id="res_ped_int77" depart="2779.00" departLane="best" departSpeed="max" from="E30" to="E30.558"/>
    <trip id="res_ped_int79" depart="2851.00" departLane="best" departSpeed="max" from="E31" to="E18.410"/>

<!-- generated on 2025-07-30 17:25:33.900326 by randomTrips.py v1_23_1+0000-676720d13f6
<configuration>
    <net-file value="osm.net.xml.gz"/>
    <weights-prefix value="random_edge_priority_interval_8"/>
    <output-trip-file value="osm.res_ped.interval_8.trips.xml"/>
    <prefix value="res_ped_int8"/>
    <trip-attributes value="departLane='best'"/>
    <fringe-start-attributes value="departSpeed='max'"/>
    <vclass value="pedestrian"/>
    <via-edge-types value="footway,path,sidewalk"/>
    <remove-loops value="True"/>
    <validate value="True"/>
    <begin value="2888.0"/>
    <end value="3248.0"/>
    <insertion-rate value="100.0"/>
</configuration>
-->

<!-- generated on 2025-07-30 17:25:33 by Eclipse SUMO duarouter Version 1.23.1
<duarouterConfiguration xmlns:xsi="http://www.w3.org/2001/XMLSchema-instance" xsi:noNamespaceSchemaLocation="http://sumo.dlr.de/xsd/duarouterConfiguration.xsd">

    <input>
        <net-file value="osm.net.xml.gz"/>
        <route-files value="osm.res_ped.interval_8.trips.xml"/>
    </input>

    <output>
        <output-file value="osm.res_ped.interval_8.trips.xml.tmp"/>
        <alternatives-output value="NUL"/>
        <write-trips value="true"/>
    </output>

    <processing>
        <remove-loops value="true"/>
    </processing>

    <time>
        <begin value="2888.0"/>
        <end value="3248.0"/>
    </time>

    <report>
        <no-warnings value="true"/>
        <ignore-errors value="true"/>
        <no-step-log value="true"/>
    </report>

</duarouterConfiguration>
-->

    <trip id="res_ped_int80" depart="2888.00" departLane="best" departSpeed="max" from="E22" to="E18.410"/>
    <trip id="res_ped_int81" depart="2924.00" departLane="best" departSpeed="max" from="E22" to="E18.410"/>
    <trip id="res_ped_int82" depart="2960.00" departLane="best" departSpeed="max" from="E22" to="E30.558"/>
    <trip id="res_ped_int83" depart="2996.00" departLane="best" departSpeed="max" from="E22" to="E18.410"/>
    <trip id="res_ped_int84" depart="3032.00" departLane="best" departSpeed="max" from="E22" to="E18.410"/>
    <trip id="res_ped_int85" depart="3068.00" departLane="best" departSpeed="max" from="E22" to="E30.558"/>
    <trip id="res_ped_int86" depart="3104.00" departLane="best" departSpeed="max" from="E22" to="E18.410"/>
    <trip id="res_ped_int87" depart="3140.00" departLane="best" departSpeed="max" from="E22" to="E30.558"/>
    <trip id="res_ped_int88" depart="3176.00" departLane="best" departSpeed="max" from="E22" to="E30.558"/>
    <trip id="res_ped_int89" depart="3212.00" departLane="best" departSpeed="max" from="E22" to="E18.410"/>

<!-- generated on 2025-07-30 17:25:34.732115 by randomTrips.py v1_23_1+0000-676720d13f6
<configuration>
    <net-file value="osm.net.xml.gz"/>
    <weights-prefix value="random_edge_priority_interval_9"/>
    <output-trip-file value="osm.res_ped.interval_9.trips.xml"/>
    <prefix value="res_ped_int9"/>
    <trip-attributes value="departLane='best'"/>
    <fringe-start-attributes value="departSpeed='max'"/>
    <vclass value="pedestrian"/>
    <via-edge-types value="footway,path,sidewalk"/>
    <remove-loops value="True"/>
    <validate value="True"/>
    <begin value="3249.0"/>
    <insertion-rate value="102.56410256410257"/>
</configuration>
-->

<!-- generated on 2025-07-30 17:25:34 by Eclipse SUMO duarouter Version 1.23.1
<duarouterConfiguration xmlns:xsi="http://www.w3.org/2001/XMLSchema-instance" xsi:noNamespaceSchemaLocation="http://sumo.dlr.de/xsd/duarouterConfiguration.xsd">

    <input>
        <net-file value="osm.net.xml.gz"/>
        <route-files value="osm.res_ped.interval_9.trips.xml"/>
    </input>

    <output>
        <output-file value="osm.res_ped.interval_9.trips.xml.tmp"/>
        <alternatives-output value="NUL"/>
        <write-trips value="true"/>
    </output>

    <processing>
        <remove-loops value="true"/>
    </processing>

    <time>
        <begin value="3249.0"/>
        <end value="3600.0"/>
    </time>

    <report>
        <no-warnings value="true"/>
        <ignore-errors value="true"/>
        <no-step-log value="true"/>
    </report>

</duarouterConfiguration>
-->

    <trip id="res_ped_int91" depart="3284.10" departLane="best" departSpeed="max" from="E22" to="E18.410"/>
    <trip id="res_ped_int92" depart="3319.20" departLane="best" departSpeed="max" from="E30" to="E30.558"/>
    <trip id="res_ped_int93" depart="3354.30" departLane="best" departSpeed="max" from="E31" to="E18.410"/>
    <trip id="res_ped_int94" depart="3389.40" departLane="best" departSpeed="max" from="E22" to="E18.410"/>
    <trip id="res_ped_int96" depart="3459.60" departLane="best" departSpeed="max" from="E18" to="E18.410"/>
    <trip id="res_ped_int97" depart="3494.70" departLane="best" departSpeed="max" from="E30" to="E30.558"/>
    <trip id="res_ped_int99" depart="3564.90" departLane="best" departSpeed="max" from="E31" to="E18.410"/>
</routes>
