<?xml version="1.0" encoding="UTF-8"?>

<!-- generated on 2025-07-30 17:25:21.441519 by randomTrips.py v1_23_1+0000-676720d13f6
<configuration>
    <net-file value="osm.net.xml.gz"/>
    <weights-prefix value="random_edge_priority_interval_5"/>
    <output-trip-file value="osm.res_bike.interval_5.trips.xml"/>
    <prefix value="res_bike_int5"/>
    <trip-attributes value="departLane='best'"/>
    <fringe-start-attributes value="departSpeed='max'"/>
    <vehicle-class value="bicycle"/>
    <vclass value="bicycle"/>
    <remove-loops value="True"/>
    <validate value="True"/>
    <begin value="1805.0"/>
    <end value="2165.0"/>
    <insertion-rate value="280.0"/>
</configuration>
-->

<!-- generated on 2025-07-30 17:25:21 by Eclipse SUMO duarouter Version 1.23.1
<duarouterConfiguration xmlns:xsi="http://www.w3.org/2001/XMLSchema-instance" xsi:noNamespaceSchemaLocation="http://sumo.dlr.de/xsd/duarouterConfiguration.xsd">

    <input>
        <net-file value="osm.net.xml.gz"/>
        <route-files value="osm.res_bike.interval_5.trips.xml"/>
    </input>

    <output>
        <output-file value="osm.res_bike.interval_5.trips.xml.tmp"/>
        <alternatives-output value="NUL"/>
        <write-trips value="true"/>
    </output>

    <processing>
        <remove-loops value="true"/>
    </processing>

    <time>
        <begin value="1805.0"/>
        <end value="2165.0"/>
    </time>

    <report>
        <no-warnings value="true"/>
        <ignore-errors value="true"/>
        <no-step-log value="true"/>
    </report>

</duarouterConfiguration>
-->

<routes xmlns:xsi="http://www.w3.org/2001/XMLSchema-instance" xsi:noNamespaceSchemaLocation="http://sumo.dlr.de/xsd/routes_file.xsd">
    <vType id="res_bike_int5_bicycle" vClass="bicycle"/>
    <trip id="res_bike_int51" type="res_bike_int5_bicycle" depart="1817.86" departLane="best" departSpeed="max" from="E22" to="E18.410"/>
    <trip id="res_bike_int52" type="res_bike_int5_bicycle" depart="1830.71" departLane="best" departSpeed="max" from="E30" to="E30.558"/>
    <trip id="res_bike_int53" type="res_bike_int5_bicycle" depart="1843.57" departLane="best" departSpeed="max" from="E31" to="E18.410"/>
    <trip id="res_bike_int54" type="res_bike_int5_bicycle" depart="1856.43" departLane="best" departSpeed="max" from="E22" to="E18.410"/>
    <trip id="res_bike_int56" type="res_bike_int5_bicycle" depart="1882.14" departLane="best" departSpeed="max" from="E18" to="E18.410"/>
    <trip id="res_bike_int57" type="res_bike_int5_bicycle" depart="1895.00" departLane="best" departSpeed="max" from="E30" to="E30.558"/>
    <trip id="res_bike_int59" type="res_bike_int5_bicycle" depart="1920.71" departLane="best" departSpeed="max" from="E31" to="E18.410"/>
    <trip id="res_bike_int510" type="res_bike_int5_bicycle" depart="1933.57" departLane="best" departSpeed="max" from="E31" to="E30.558"/>
    <trip id="res_bike_int511" type="res_bike_int5_bicycle" depart="1946.43" departLane="best" departSpeed="max" from="E22" to="E18.410"/>
    <trip id="res_bike_int513" type="res_bike_int5_bicycle" depart="1972.14" departLane="best" departSpeed="max" from="E18" to="E18.410"/>
    <trip id="res_bike_int514" type="res_bike_int5_bicycle" depart="1985.00" departLane="best" departSpeed="max" from="E31" to="E30.558"/>
    <trip id="res_bike_int515" type="res_bike_int5_bicycle" depart="1997.86" departLane="best" departSpeed="max" from="E31" to="E30.558"/>
    <trip id="res_bike_int516" type="res_bike_int5_bicycle" depart="2010.71" departLane="best" departSpeed="max" from="E30" to="E31.622"/>
    <trip id="res_bike_int517" type="res_bike_int5_bicycle" depart="2023.57" departLane="best" departSpeed="max" from="E22" to="E30.558"/>
    <trip id="res_bike_int518" type="res_bike_int5_bicycle" depart="2036.43" departLane="best" departSpeed="max" from="E31" to="E30.558"/>
    <trip id="res_bike_int519" type="res_bike_int5_bicycle" depart="2049.29" departLane="best" departSpeed="max" from="E31" to="E30.558"/>
    <trip id="res_bike_int521" type="res_bike_int5_bicycle" depart="2075.00" departLane="best" departSpeed="max" from="E18" to="E22.488"/>
    <trip id="res_bike_int522" type="res_bike_int5_bicycle" depart="2087.86" departLane="best" departSpeed="max" from="E18" to="E18.410"/>
    <trip id="res_bike_int523" type="res_bike_int5_bicycle" depart="2100.71" departLane="best" departSpeed="max" from="E18" to="E22.488"/>
    <trip id="res_bike_int524" type="res_bike_int5_bicycle" depart="2113.57" departLane="best" departSpeed="max" from="E30" to="E22.488"/>
    <trip id="res_bike_int525" type="res_bike_int5_bicycle" depart="2126.43" departLane="best" departSpeed="max" from="E22" to="E18.410"/>
    <trip id="res_bike_int527" type="res_bike_int5_bicycle" depart="2152.14" departLane="best" departSpeed="max" from="E30" to="E30.558"/>
</routes>
