<?xml version="1.0" encoding="UTF-8"?>

<!-- generated on 2025-07-31 11:10:05.927542 by randomTrips.py v1_23_1+0000-676720d13f6
<configuration>
    <net-file value="osm.net.xml.gz"/>
    <weights-prefix value="random_edge_priority_interval_3"/>
    <output-trip-file value="osm.res_veh.interval_3.trips.xml"/>
    <prefix value="res_veh_int3"/>
    <trip-attributes value="departLane='best'"/>
    <fringe-start-attributes value="departSpeed='max'"/>
    <vehicle-class value="passenger"/>
    <remove-loops value="True"/>
    <validate value="True"/>
    <begin value="1083.0"/>
    <end value="1443.0"/>
    <insertion-rate value="370.0"/>
</configuration>
-->

<!-- generated on 2025-07-31 11:10:05 by Eclipse SUMO duarouter Version 1.23.1
<duarouterConfiguration xmlns:xsi="http://www.w3.org/2001/XMLSchema-instance" xsi:noNamespaceSchemaLocation="http://sumo.dlr.de/xsd/duarouterConfiguration.xsd">

    <input>
        <net-file value="osm.net.xml.gz"/>
        <route-files value="osm.res_veh.interval_3.trips.xml"/>
    </input>

    <output>
        <output-file value="osm.res_veh.interval_3.trips.xml.tmp"/>
        <alternatives-output value="NUL"/>
        <write-trips value="true"/>
    </output>

    <processing>
        <remove-loops value="true"/>
    </processing>

    <time>
        <begin value="1083.0"/>
        <end value="1443.0"/>
    </time>

    <report>
        <no-warnings value="true"/>
        <ignore-errors value="true"/>
        <no-step-log value="true"/>
    </report>

</duarouterConfiguration>
-->

<routes xmlns:xsi="http://www.w3.org/2001/XMLSchema-instance" xsi:noNamespaceSchemaLocation="http://sumo.dlr.de/xsd/routes_file.xsd">
    <vType id="res_veh_int3_passenger" vClass="passenger"/>
    <trip id="res_veh_int31" type="res_veh_int3_passenger" depart="1092.73" departLane="best" departSpeed="max" from="E18" to="E18.410"/>
    <trip id="res_veh_int32" type="res_veh_int3_passenger" depart="1102.46" departLane="best" departSpeed="max" from="E30" to="E30.558"/>
    <trip id="res_veh_int33" type="res_veh_int3_passenger" depart="1112.19" departLane="best" departSpeed="max" from="E31" to="E18.410"/>
    <trip id="res_veh_int34" type="res_veh_int3_passenger" depart="1121.92" departLane="best" departSpeed="max" from="E22" to="E18.410"/>
    <trip id="res_veh_int36" type="res_veh_int3_passenger" depart="1141.38" departLane="best" departSpeed="max" from="E18" to="E18.410"/>
    <trip id="res_veh_int37" type="res_veh_int3_passenger" depart="1151.11" departLane="best" departSpeed="max" from="E30" to="E30.558"/>
    <trip id="res_veh_int310" type="res_veh_int3_passenger" depart="1180.30" departLane="best" departSpeed="max" from="E30" to="E30.558"/>
    <trip id="res_veh_int311" type="res_veh_int3_passenger" depart="1190.03" departLane="best" departSpeed="max" from="E18" to="E18.410"/>
    <trip id="res_veh_int313" type="res_veh_int3_passenger" depart="1209.49" departLane="best" departSpeed="max" from="E18" to="E18.410"/>
    <trip id="res_veh_int314" type="res_veh_int3_passenger" depart="1219.22" departLane="best" departSpeed="max" from="E30" to="E30.558"/>
    <trip id="res_veh_int315" type="res_veh_int3_passenger" depart="1228.95" departLane="best" departSpeed="max" from="E30" to="E30.558"/>
    <trip id="res_veh_int316" type="res_veh_int3_passenger" depart="1238.68" departLane="best" departSpeed="max" from="E30" to="E31.622"/>
    <trip id="res_veh_int318" type="res_veh_int3_passenger" depart="1258.14" departLane="best" departSpeed="max" from="E30" to="E30.558"/>
    <trip id="res_veh_int319" type="res_veh_int3_passenger" depart="1267.86" departLane="best" departSpeed="max" from="E30" to="E30.558"/>
    <trip id="res_veh_int321" type="res_veh_int3_passenger" depart="1287.32" departLane="best" departSpeed="max" from="E18" to="E22.488"/>
    <trip id="res_veh_int322" type="res_veh_int3_passenger" depart="1297.05" departLane="best" departSpeed="max" from="E18" to="E18.410"/>
    <trip id="res_veh_int323" type="res_veh_int3_passenger" depart="1306.78" departLane="best" departSpeed="max" from="E18" to="E22.488"/>
    <trip id="res_veh_int324" type="res_veh_int3_passenger" depart="1316.51" departLane="best" departSpeed="max" from="E30" to="E22.488"/>
    <trip id="res_veh_int325" type="res_veh_int3_passenger" depart="1326.24" departLane="best" departSpeed="max" from="E18" to="E18.410"/>
    <trip id="res_veh_int326" type="res_veh_int3_passenger" depart="1335.97" departLane="best" departSpeed="max" from="E18" to="E31.622"/>
    <trip id="res_veh_int327" type="res_veh_int3_passenger" depart="1345.70" departLane="best" departSpeed="max" from="E30" to="E30.558"/>
    <trip id="res_veh_int329" type="res_veh_int3_passenger" depart="1365.16" departLane="best" departSpeed="max" from="E18" to="E22.488"/>
    <trip id="res_veh_int330" type="res_veh_int3_passenger" depart="1374.89" departLane="best" departSpeed="max" from="E31" to="E30.558"/>
    <trip id="res_veh_int331" type="res_veh_int3_passenger" depart="1384.62" departLane="best" departSpeed="max" from="E30" to="E30.558"/>
    <trip id="res_veh_int332" type="res_veh_int3_passenger" depart="1394.35" departLane="best" departSpeed="max" from="E30" to="E31.622"/>
    <trip id="res_veh_int333" type="res_veh_int3_passenger" depart="1404.08" departLane="best" departSpeed="max" from="E18" to="E18.410"/>
    <trip id="res_veh_int334" type="res_veh_int3_passenger" depart="1413.81" departLane="best" departSpeed="max" from="E18" to="E22.488"/>
    <trip id="res_veh_int335" type="res_veh_int3_passenger" depart="1423.54" departLane="best" departSpeed="max" from="E18" to="E31.622"/>
    <trip id="res_veh_int336" type="res_veh_int3_passenger" depart="1433.27" departLane="best" departSpeed="max" from="E30" to="E22.488"/>
</routes>
