<?xml version="1.0" encoding="UTF-8"?>

<!-- generated on 2025-07-31 11:09:56.949094 by randomTrips.py v1_23_1+0000-676720d13f6
<configuration>
    <net-file value="osm.net.xml.gz"/>
    <weights-prefix value="random_edge_priority_interval_6"/>
    <output-trip-file value="osm.res_motorcycle.interval_6.trips.xml"/>
    <prefix value="res_motorcycle_int6"/>
    <trip-attributes value="departLane='best'"/>
    <fringe-start-attributes value="departSpeed='max'"/>
    <vehicle-class value="motorcycle"/>
    <vclass value="motorcycle"/>
    <remove-loops value="True"/>
    <validate value="True"/>
    <begin value="2166.0"/>
    <end value="2526.0"/>
    <insertion-rate value="6000.0"/>
</configuration>
-->

<!-- generated on 2025-07-31 11:09:56 by Eclipse SUMO duarouter Version 1.23.1
<duarouterConfiguration xmlns:xsi="http://www.w3.org/2001/XMLSchema-instance" xsi:noNamespaceSchemaLocation="http://sumo.dlr.de/xsd/duarouterConfiguration.xsd">

    <input>
        <net-file value="osm.net.xml.gz"/>
        <route-files value="osm.res_motorcycle.interval_6.trips.xml"/>
    </input>

    <output>
        <output-file value="osm.res_motorcycle.interval_6.trips.xml.tmp"/>
        <alternatives-output value="NUL"/>
        <write-trips value="true"/>
    </output>

    <processing>
        <remove-loops value="true"/>
    </processing>

    <time>
        <begin value="2166.0"/>
        <end value="2526.0"/>
    </time>

    <report>
        <no-warnings value="true"/>
        <ignore-errors value="true"/>
        <no-step-log value="true"/>
    </report>

</duarouterConfiguration>
-->

<routes xmlns:xsi="http://www.w3.org/2001/XMLSchema-instance" xsi:noNamespaceSchemaLocation="http://sumo.dlr.de/xsd/routes_file.xsd">
    <vType id="res_motorcycle_int6_motorcycle" vClass="motorcycle"/>
    <trip id="res_motorcycle_int62" type="res_motorcycle_int6_motorcycle" depart="2167.20" departLane="best" departSpeed="max" from="E31" to="E30.558"/>
    <trip id="res_motorcycle_int63" type="res_motorcycle_int6_motorcycle" depart="2167.80" departLane="best" departSpeed="max" from="E31" to="E18.410"/>
    <trip id="res_motorcycle_int65" type="res_motorcycle_int6_motorcycle" depart="2169.00" departLane="best" departSpeed="max" from="E22" to="E30.558"/>
    <trip id="res_motorcycle_int66" type="res_motorcycle_int6_motorcycle" depart="2169.60" departLane="best" departSpeed="max" from="E18" to="E18.410"/>
    <trip id="res_motorcycle_int67" type="res_motorcycle_int6_motorcycle" depart="2170.20" departLane="best" departSpeed="max" from="E30" to="E30.558"/>
    <trip id="res_motorcycle_int68" type="res_motorcycle_int6_motorcycle" depart="2170.80" departLane="best" departSpeed="max" from="E22" to="E30.558"/>
    <trip id="res_motorcycle_int69" type="res_motorcycle_int6_motorcycle" depart="2171.40" departLane="best" departSpeed="max" from="E31" to="E18.410"/>
    <trip id="res_motorcycle_int610" type="res_motorcycle_int6_motorcycle" depart="2172.00" departLane="best" departSpeed="max" from="E31" to="E30.558"/>
    <trip id="res_motorcycle_int613" type="res_motorcycle_int6_motorcycle" depart="2173.80" departLane="best" departSpeed="max" from="E18" to="E18.410"/>
    <trip id="res_motorcycle_int614" type="res_motorcycle_int6_motorcycle" depart="2174.40" departLane="best" departSpeed="max" from="E31" to="E30.558"/>
    <trip id="res_motorcycle_int615" type="res_motorcycle_int6_motorcycle" depart="2175.00" departLane="best" departSpeed="max" from="E31" to="E30.558"/>
    <trip id="res_motorcycle_int616" type="res_motorcycle_int6_motorcycle" depart="2175.60" departLane="best" departSpeed="max" from="E30" to="E31.622"/>
    <trip id="res_motorcycle_int617" type="res_motorcycle_int6_motorcycle" depart="2176.20" departLane="best" departSpeed="max" from="E30" to="E30.558"/>
    <trip id="res_motorcycle_int618" type="res_motorcycle_int6_motorcycle" depart="2176.80" departLane="best" departSpeed="max" from="E31" to="E30.558"/>
    <trip id="res_motorcycle_int619" type="res_motorcycle_int6_motorcycle" depart="2177.40" departLane="best" departSpeed="max" from="E31" to="E30.558"/>
    <trip id="res_motorcycle_int620" type="res_motorcycle_int6_motorcycle" depart="2178.00" departLane="best" departSpeed="max" from="E31" to="E18.410"/>
    <trip id="res_motorcycle_int621" type="res_motorcycle_int6_motorcycle" depart="2178.60" departLane="best" departSpeed="max" from="E22" to="E22.488"/>
    <trip id="res_motorcycle_int622" type="res_motorcycle_int6_motorcycle" depart="2179.20" departLane="best" departSpeed="max" from="E18" to="E18.410"/>
    <trip id="res_motorcycle_int623" type="res_motorcycle_int6_motorcycle" depart="2179.80" departLane="best" departSpeed="max" from="E18" to="E22.488"/>
    <trip id="res_motorcycle_int624" type="res_motorcycle_int6_motorcycle" depart="2180.40" departLane="best" departSpeed="max" from="E30" to="E22.488"/>
    <trip id="res_motorcycle_int626" type="res_motorcycle_int6_motorcycle" depart="2181.60" departLane="best" departSpeed="max" from="E30" to="E31.622"/>
    <trip id="res_motorcycle_int627" type="res_motorcycle_int6_motorcycle" depart="2182.20" departLane="best" departSpeed="max" from="E30" to="E30.558"/>
    <trip id="res_motorcycle_int628" type="res_motorcycle_int6_motorcycle" depart="2182.80" departLane="best" departSpeed="max" from="E22" to="E30.558"/>
    <trip id="res_motorcycle_int629" type="res_motorcycle_int6_motorcycle" depart="2183.40" departLane="best" departSpeed="max" from="E22" to="E22.488"/>
    <trip id="res_motorcycle_int630" type="res_motorcycle_int6_motorcycle" depart="2184.00" departLane="best" departSpeed="max" from="E31" to="E30.558"/>
    <trip id="res_motorcycle_int631" type="res_motorcycle_int6_motorcycle" depart="2184.60" departLane="best" departSpeed="max" from="E30" to="E30.558"/>
    <trip id="res_motorcycle_int632" type="res_motorcycle_int6_motorcycle" depart="2185.20" departLane="best" departSpeed="max" from="E31" to="E31.622"/>
    <trip id="res_motorcycle_int633" type="res_motorcycle_int6_motorcycle" depart="2185.80" departLane="best" departSpeed="max" from="E22" to="E18.410"/>
    <trip id="res_motorcycle_int634" type="res_motorcycle_int6_motorcycle" depart="2186.40" departLane="best" departSpeed="max" from="E30" to="E22.488"/>
    <trip id="res_motorcycle_int637" type="res_motorcycle_int6_motorcycle" depart="2188.20" departLane="best" departSpeed="max" from="E30" to="E22.488"/>
    <trip id="res_motorcycle_int640" type="res_motorcycle_int6_motorcycle" depart="2190.00" departLane="best" departSpeed="max" from="E30" to="E22.488"/>
    <trip id="res_motorcycle_int641" type="res_motorcycle_int6_motorcycle" depart="2190.60" departLane="best" departSpeed="max" from="E30" to="E31.622"/>
    <trip id="res_motorcycle_int643" type="res_motorcycle_int6_motorcycle" depart="2191.80" departLane="best" departSpeed="max" from="E31" to="E30.558"/>
    <trip id="res_motorcycle_int644" type="res_motorcycle_int6_motorcycle" depart="2192.40" departLane="best" departSpeed="max" from="E18" to="E18.410"/>
    <trip id="res_motorcycle_int647" type="res_motorcycle_int6_motorcycle" depart="2194.20" departLane="best" departSpeed="max" from="E18" to="E22.488"/>
    <trip id="res_motorcycle_int648" type="res_motorcycle_int6_motorcycle" depart="2194.80" departLane="best" departSpeed="max" from="E31" to="E30.558"/>
    <trip id="res_motorcycle_int649" type="res_motorcycle_int6_motorcycle" depart="2195.40" departLane="best" departSpeed="max" from="E31" to="E31.622"/>
    <trip id="res_motorcycle_int651" type="res_motorcycle_int6_motorcycle" depart="2196.60" departLane="best" departSpeed="max" from="E31" to="E30.558"/>
    <trip id="res_motorcycle_int652" type="res_motorcycle_int6_motorcycle" depart="2197.20" departLane="best" departSpeed="max" from="E30" to="E30.558"/>
    <trip id="res_motorcycle_int653" type="res_motorcycle_int6_motorcycle" depart="2197.80" departLane="best" departSpeed="max" from="E18" to="E22.488"/>
    <trip id="res_motorcycle_int654" type="res_motorcycle_int6_motorcycle" depart="2198.40" departLane="best" departSpeed="max" from="E30" to="E31.622"/>
    <trip id="res_motorcycle_int657" type="res_motorcycle_int6_motorcycle" depart="2200.20" departLane="best" departSpeed="max" from="E31" to="E31.622"/>
    <trip id="res_motorcycle_int658" type="res_motorcycle_int6_motorcycle" depart="2200.80" departLane="best" departSpeed="max" from="E30" to="E30.558"/>
    <trip id="res_motorcycle_int660" type="res_motorcycle_int6_motorcycle" depart="2202.00" departLane="best" departSpeed="max" from="E31" to="E30.558"/>
    <trip id="res_motorcycle_int661" type="res_motorcycle_int6_motorcycle" depart="2202.60" departLane="best" departSpeed="max" from="E31" to="E30.558"/>
    <trip id="res_motorcycle_int662" type="res_motorcycle_int6_motorcycle" depart="2203.20" departLane="best" departSpeed="max" from="E18" to="E22.488"/>
    <trip id="res_motorcycle_int663" type="res_motorcycle_int6_motorcycle" depart="2203.80" departLane="best" departSpeed="max" from="E18" to="E31.622"/>
    <trip id="res_motorcycle_int664" type="res_motorcycle_int6_motorcycle" depart="2204.40" departLane="best" departSpeed="max" from="E31" to="E31.622"/>
    <trip id="res_motorcycle_int666" type="res_motorcycle_int6_motorcycle" depart="2205.60" departLane="best" departSpeed="max" from="E31" to="E31.622"/>
    <trip id="res_motorcycle_int667" type="res_motorcycle_int6_motorcycle" depart="2206.20" departLane="best" departSpeed="max" from="E18" to="E22.488"/>
    <trip id="res_motorcycle_int668" type="res_motorcycle_int6_motorcycle" depart="2206.80" departLane="best" departSpeed="max" from="E18" to="E31.622"/>
    <trip id="res_motorcycle_int669" type="res_motorcycle_int6_motorcycle" depart="2207.40" departLane="best" departSpeed="max" from="E31" to="E18.410"/>
    <trip id="res_motorcycle_int670" type="res_motorcycle_int6_motorcycle" depart="2208.00" departLane="best" departSpeed="max" from="E30" to="E30.558"/>
    <trip id="res_motorcycle_int671" type="res_motorcycle_int6_motorcycle" depart="2208.60" departLane="best" departSpeed="max" from="E30" to="E31.622"/>
    <trip id="res_motorcycle_int673" type="res_motorcycle_int6_motorcycle" depart="2209.80" departLane="best" departSpeed="max" from="E30" to="E30.558"/>
    <trip id="res_motorcycle_int674" type="res_motorcycle_int6_motorcycle" depart="2210.40" departLane="best" departSpeed="max" from="E22" to="E22.488"/>
    <trip id="res_motorcycle_int675" type="res_motorcycle_int6_motorcycle" depart="2211.00" departLane="best" departSpeed="max" from="E31" to="E30.558"/>
    <trip id="res_motorcycle_int676" type="res_motorcycle_int6_motorcycle" depart="2211.60" departLane="best" departSpeed="max" from="E30" to="E30.558"/>
    <trip id="res_motorcycle_int677" type="res_motorcycle_int6_motorcycle" depart="2212.20" departLane="best" departSpeed="max" from="E22" to="E18.410"/>
    <trip id="res_motorcycle_int678" type="res_motorcycle_int6_motorcycle" depart="2212.80" departLane="best" departSpeed="max" from="E30" to="E30.558"/>
    <trip id="res_motorcycle_int679" type="res_motorcycle_int6_motorcycle" depart="2213.40" departLane="best" departSpeed="max" from="E22" to="E18.410"/>
    <trip id="res_motorcycle_int682" type="res_motorcycle_int6_motorcycle" depart="2215.20" departLane="best" departSpeed="max" from="E31" to="E18.410"/>
    <trip id="res_motorcycle_int683" type="res_motorcycle_int6_motorcycle" depart="2215.80" departLane="best" departSpeed="max" from="E30" to="E30.558"/>
    <trip id="res_motorcycle_int684" type="res_motorcycle_int6_motorcycle" depart="2216.40" departLane="best" departSpeed="max" from="E22" to="E18.410"/>
    <trip id="res_motorcycle_int685" type="res_motorcycle_int6_motorcycle" depart="2217.00" departLane="best" departSpeed="max" from="E31" to="E30.558"/>
    <trip id="res_motorcycle_int686" type="res_motorcycle_int6_motorcycle" depart="2217.60" departLane="best" departSpeed="max" from="E30" to="E31.622"/>
    <trip id="res_motorcycle_int687" type="res_motorcycle_int6_motorcycle" depart="2218.20" departLane="best" departSpeed="max" from="E31" to="E18.410"/>
    <trip id="res_motorcycle_int688" type="res_motorcycle_int6_motorcycle" depart="2218.80" departLane="best" departSpeed="max" from="E18" to="E22.488"/>
    <trip id="res_motorcycle_int689" type="res_motorcycle_int6_motorcycle" depart="2219.40" departLane="best" departSpeed="max" from="E30" to="E22.488"/>
    <trip id="res_motorcycle_int690" type="res_motorcycle_int6_motorcycle" depart="2220.00" departLane="best" departSpeed="max" from="E31" to="E30.558"/>
    <trip id="res_motorcycle_int691" type="res_motorcycle_int6_motorcycle" depart="2220.60" departLane="best" departSpeed="max" from="E31" to="E18.410"/>
    <trip id="res_motorcycle_int692" type="res_motorcycle_int6_motorcycle" depart="2221.20" departLane="best" departSpeed="max" from="E30" to="E22.488"/>
    <trip id="res_motorcycle_int693" type="res_motorcycle_int6_motorcycle" depart="2221.80" departLane="best" departSpeed="max" from="E31" to="E18.410"/>
    <trip id="res_motorcycle_int694" type="res_motorcycle_int6_motorcycle" depart="2222.40" departLane="best" departSpeed="max" from="E22" to="E22.488"/>
    <trip id="res_motorcycle_int695" type="res_motorcycle_int6_motorcycle" depart="2223.00" departLane="best" departSpeed="max" from="E30" to="E22.488"/>
    <trip id="res_motorcycle_int696" type="res_motorcycle_int6_motorcycle" depart="2223.60" departLane="best" departSpeed="max" from="E30" to="E31.622"/>
    <trip id="res_motorcycle_int697" type="res_motorcycle_int6_motorcycle" depart="2224.20" departLane="best" departSpeed="max" from="E30" to="E31.622"/>
    <trip id="res_motorcycle_int699" type="res_motorcycle_int6_motorcycle" depart="2225.40" departLane="best" departSpeed="max" from="E31" to="E31.622"/>
    <trip id="res_motorcycle_int6100" type="res_motorcycle_int6_motorcycle" depart="2226.00" departLane="best" departSpeed="max" from="E31" to="E31.622"/>
    <trip id="res_motorcycle_int6101" type="res_motorcycle_int6_motorcycle" depart="2226.60" departLane="best" departSpeed="max" from="E31" to="E18.410"/>
    <trip id="res_motorcycle_int6104" type="res_motorcycle_int6_motorcycle" depart="2228.40" departLane="best" departSpeed="max" from="E30" to="E31.622"/>
    <trip id="res_motorcycle_int6105" type="res_motorcycle_int6_motorcycle" depart="2229.00" departLane="best" departSpeed="max" from="E30" to="E31.622"/>
    <trip id="res_motorcycle_int6106" type="res_motorcycle_int6_motorcycle" depart="2229.60" departLane="best" departSpeed="max" from="E30" to="E22.488"/>
    <trip id="res_motorcycle_int6107" type="res_motorcycle_int6_motorcycle" depart="2230.20" departLane="best" departSpeed="max" from="E31" to="E31.622"/>
    <trip id="res_motorcycle_int6108" type="res_motorcycle_int6_motorcycle" depart="2230.80" departLane="best" departSpeed="max" from="E30" to="E30.558"/>
    <trip id="res_motorcycle_int6109" type="res_motorcycle_int6_motorcycle" depart="2231.40" departLane="best" departSpeed="max" from="E22" to="E22.488"/>
    <trip id="res_motorcycle_int6110" type="res_motorcycle_int6_motorcycle" depart="2232.00" departLane="best" departSpeed="max" from="E31" to="E30.558"/>
    <trip id="res_motorcycle_int6111" type="res_motorcycle_int6_motorcycle" depart="2232.60" departLane="best" departSpeed="max" from="E30" to="E30.558"/>
    <trip id="res_motorcycle_int6113" type="res_motorcycle_int6_motorcycle" depart="2233.80" departLane="best" departSpeed="max" from="E30" to="E31.622"/>
    <trip id="res_motorcycle_int6115" type="res_motorcycle_int6_motorcycle" depart="2235.00" departLane="best" departSpeed="max" from="E18" to="E18.410"/>
    <trip id="res_motorcycle_int6116" type="res_motorcycle_int6_motorcycle" depart="2235.60" departLane="best" departSpeed="max" from="E30" to="E30.558"/>
    <trip id="res_motorcycle_int6117" type="res_motorcycle_int6_motorcycle" depart="2236.20" departLane="best" departSpeed="max" from="E22" to="E18.410"/>
    <trip id="res_motorcycle_int6118" type="res_motorcycle_int6_motorcycle" depart="2236.80" departLane="best" departSpeed="max" from="E31" to="E18.410"/>
    <trip id="res_motorcycle_int6119" type="res_motorcycle_int6_motorcycle" depart="2237.40" departLane="best" departSpeed="max" from="E30" to="E30.558"/>
    <trip id="res_motorcycle_int6120" type="res_motorcycle_int6_motorcycle" depart="2238.00" departLane="best" departSpeed="max" from="E30" to="E30.558"/>
    <trip id="res_motorcycle_int6121" type="res_motorcycle_int6_motorcycle" depart="2238.60" departLane="best" departSpeed="max" from="E30" to="E31.622"/>
    <trip id="res_motorcycle_int6122" type="res_motorcycle_int6_motorcycle" depart="2239.20" departLane="best" departSpeed="max" from="E22" to="E30.558"/>
    <trip id="res_motorcycle_int6123" type="res_motorcycle_int6_motorcycle" depart="2239.80" departLane="best" departSpeed="max" from="E30" to="E22.488"/>
    <trip id="res_motorcycle_int6125" type="res_motorcycle_int6_motorcycle" depart="2241.00" departLane="best" departSpeed="max" from="E30" to="E31.622"/>
    <trip id="res_motorcycle_int6126" type="res_motorcycle_int6_motorcycle" depart="2241.60" departLane="best" departSpeed="max" from="E18" to="E22.488"/>
    <trip id="res_motorcycle_int6127" type="res_motorcycle_int6_motorcycle" depart="2242.20" departLane="best" departSpeed="max" from="E31" to="E31.622"/>
    <trip id="res_motorcycle_int6128" type="res_motorcycle_int6_motorcycle" depart="2242.80" departLane="best" departSpeed="max" from="E18" to="E18.410"/>
    <trip id="res_motorcycle_int6129" type="res_motorcycle_int6_motorcycle" depart="2243.40" departLane="best" departSpeed="max" from="E30" to="E31.622"/>
    <trip id="res_motorcycle_int6130" type="res_motorcycle_int6_motorcycle" depart="2244.00" departLane="best" departSpeed="max" from="E31" to="E31.622"/>
    <trip id="res_motorcycle_int6132" type="res_motorcycle_int6_motorcycle" depart="2245.20" departLane="best" departSpeed="max" from="E31" to="E30.558"/>
    <trip id="res_motorcycle_int6133" type="res_motorcycle_int6_motorcycle" depart="2245.80" departLane="best" departSpeed="max" from="E30" to="E31.622"/>
    <trip id="res_motorcycle_int6136" type="res_motorcycle_int6_motorcycle" depart="2247.60" departLane="best" departSpeed="max" from="E31" to="E31.622"/>
    <trip id="res_motorcycle_int6137" type="res_motorcycle_int6_motorcycle" depart="2248.20" departLane="best" departSpeed="max" from="E22" to="E18.410"/>
    <trip id="res_motorcycle_int6139" type="res_motorcycle_int6_motorcycle" depart="2249.40" departLane="best" departSpeed="max" from="E30" to="E30.558"/>
    <trip id="res_motorcycle_int6140" type="res_motorcycle_int6_motorcycle" depart="2250.00" departLane="best" departSpeed="max" from="E31" to="E18.410"/>
    <trip id="res_motorcycle_int6141" type="res_motorcycle_int6_motorcycle" depart="2250.60" departLane="best" departSpeed="max" from="E30" to="E22.488"/>
    <trip id="res_motorcycle_int6142" type="res_motorcycle_int6_motorcycle" depart="2251.20" departLane="best" departSpeed="max" from="E30" to="E31.622"/>
    <trip id="res_motorcycle_int6143" type="res_motorcycle_int6_motorcycle" depart="2251.80" departLane="best" departSpeed="max" from="E31" to="E18.410"/>
    <trip id="res_motorcycle_int6144" type="res_motorcycle_int6_motorcycle" depart="2252.40" departLane="best" departSpeed="max" from="E30" to="E22.488"/>
    <trip id="res_motorcycle_int6145" type="res_motorcycle_int6_motorcycle" depart="2253.00" departLane="best" departSpeed="max" from="E18" to="E31.622"/>
    <trip id="res_motorcycle_int6146" type="res_motorcycle_int6_motorcycle" depart="2253.60" departLane="best" departSpeed="max" from="E30" to="E22.488"/>
    <trip id="res_motorcycle_int6147" type="res_motorcycle_int6_motorcycle" depart="2254.20" departLane="best" departSpeed="max" from="E31" to="E30.558"/>
    <trip id="res_motorcycle_int6149" type="res_motorcycle_int6_motorcycle" depart="2255.40" departLane="best" departSpeed="max" from="E18" to="E31.622"/>
    <trip id="res_motorcycle_int6150" type="res_motorcycle_int6_motorcycle" depart="2256.00" departLane="best" departSpeed="max" from="E31" to="E30.558"/>
    <trip id="res_motorcycle_int6151" type="res_motorcycle_int6_motorcycle" depart="2256.60" departLane="best" departSpeed="max" from="E31" to="E30.558"/>
    <trip id="res_motorcycle_int6152" type="res_motorcycle_int6_motorcycle" depart="2257.20" departLane="best" departSpeed="max" from="E22" to="E18.410"/>
    <trip id="res_motorcycle_int6153" type="res_motorcycle_int6_motorcycle" depart="2257.80" departLane="best" departSpeed="max" from="E30" to="E31.622"/>
    <trip id="res_motorcycle_int6154" type="res_motorcycle_int6_motorcycle" depart="2258.40" departLane="best" departSpeed="max" from="E31" to="E31.622"/>
    <trip id="res_motorcycle_int6155" type="res_motorcycle_int6_motorcycle" depart="2259.00" departLane="best" departSpeed="max" from="E31" to="E18.410"/>
    <trip id="res_motorcycle_int6157" type="res_motorcycle_int6_motorcycle" depart="2260.20" departLane="best" departSpeed="max" from="E31" to="E31.622"/>
    <trip id="res_motorcycle_int6158" type="res_motorcycle_int6_motorcycle" depart="2260.80" departLane="best" departSpeed="max" from="E30" to="E30.558"/>
    <trip id="res_motorcycle_int6160" type="res_motorcycle_int6_motorcycle" depart="2262.00" departLane="best" departSpeed="max" from="E31" to="E31.622"/>
    <trip id="res_motorcycle_int6161" type="res_motorcycle_int6_motorcycle" depart="2262.60" departLane="best" departSpeed="max" from="E31" to="E31.622"/>
    <trip id="res_motorcycle_int6163" type="res_motorcycle_int6_motorcycle" depart="2263.80" departLane="best" departSpeed="max" from="E30" to="E31.622"/>
    <trip id="res_motorcycle_int6164" type="res_motorcycle_int6_motorcycle" depart="2264.40" departLane="best" departSpeed="max" from="E31" to="E31.622"/>
    <trip id="res_motorcycle_int6166" type="res_motorcycle_int6_motorcycle" depart="2265.60" departLane="best" departSpeed="max" from="E31" to="E18.410"/>
    <trip id="res_motorcycle_int6167" type="res_motorcycle_int6_motorcycle" depart="2266.20" departLane="best" departSpeed="max" from="E31" to="E31.622"/>
    <trip id="res_motorcycle_int6169" type="res_motorcycle_int6_motorcycle" depart="2267.40" departLane="best" departSpeed="max" from="E30" to="E22.488"/>
    <trip id="res_motorcycle_int6170" type="res_motorcycle_int6_motorcycle" depart="2268.00" departLane="best" departSpeed="max" from="E31" to="E18.410"/>
    <trip id="res_motorcycle_int6171" type="res_motorcycle_int6_motorcycle" depart="2268.60" departLane="best" departSpeed="max" from="E18" to="E18.410"/>
    <trip id="res_motorcycle_int6172" type="res_motorcycle_int6_motorcycle" depart="2269.20" departLane="best" departSpeed="max" from="E30" to="E31.622"/>
    <trip id="res_motorcycle_int6174" type="res_motorcycle_int6_motorcycle" depart="2270.40" departLane="best" departSpeed="max" from="E30" to="E22.488"/>
    <trip id="res_motorcycle_int6175" type="res_motorcycle_int6_motorcycle" depart="2271.00" departLane="best" departSpeed="max" from="E31" to="E30.558"/>
    <trip id="res_motorcycle_int6176" type="res_motorcycle_int6_motorcycle" depart="2271.60" departLane="best" departSpeed="max" from="E31" to="E18.410"/>
    <trip id="res_motorcycle_int6177" type="res_motorcycle_int6_motorcycle" depart="2272.20" departLane="best" departSpeed="max" from="E31" to="E18.410"/>
    <trip id="res_motorcycle_int6179" type="res_motorcycle_int6_motorcycle" depart="2273.40" departLane="best" departSpeed="max" from="E18" to="E22.488"/>
    <trip id="res_motorcycle_int6181" type="res_motorcycle_int6_motorcycle" depart="2274.60" departLane="best" departSpeed="max" from="E30" to="E30.558"/>
    <trip id="res_motorcycle_int6182" type="res_motorcycle_int6_motorcycle" depart="2275.20" departLane="best" departSpeed="max" from="E30" to="E30.558"/>
    <trip id="res_motorcycle_int6183" type="res_motorcycle_int6_motorcycle" depart="2275.80" departLane="best" departSpeed="max" from="E30" to="E30.558"/>
    <trip id="res_motorcycle_int6184" type="res_motorcycle_int6_motorcycle" depart="2276.40" departLane="best" departSpeed="max" from="E18" to="E31.622"/>
    <trip id="res_motorcycle_int6185" type="res_motorcycle_int6_motorcycle" depart="2277.00" departLane="best" departSpeed="max" from="E30" to="E30.558"/>
    <trip id="res_motorcycle_int6186" type="res_motorcycle_int6_motorcycle" depart="2277.60" departLane="best" departSpeed="max" from="E31" to="E30.558"/>
    <trip id="res_motorcycle_int6189" type="res_motorcycle_int6_motorcycle" depart="2279.40" departLane="best" departSpeed="max" from="E30" to="E31.622"/>
    <trip id="res_motorcycle_int6191" type="res_motorcycle_int6_motorcycle" depart="2280.60" departLane="best" departSpeed="max" from="E30" to="E22.488"/>
    <trip id="res_motorcycle_int6192" type="res_motorcycle_int6_motorcycle" depart="2281.20" departLane="best" departSpeed="max" from="E30" to="E22.488"/>
    <trip id="res_motorcycle_int6193" type="res_motorcycle_int6_motorcycle" depart="2281.80" departLane="best" departSpeed="max" from="E22" to="E22.488"/>
    <trip id="res_motorcycle_int6194" type="res_motorcycle_int6_motorcycle" depart="2282.40" departLane="best" departSpeed="max" from="E31" to="E30.558"/>
    <trip id="res_motorcycle_int6195" type="res_motorcycle_int6_motorcycle" depart="2283.00" departLane="best" departSpeed="max" from="E31" to="E30.558"/>
    <trip id="res_motorcycle_int6196" type="res_motorcycle_int6_motorcycle" depart="2283.60" departLane="best" departSpeed="max" from="E30" to="E30.558"/>
    <trip id="res_motorcycle_int6197" type="res_motorcycle_int6_motorcycle" depart="2284.20" departLane="best" departSpeed="max" from="E18" to="E22.488"/>
    <trip id="res_motorcycle_int6198" type="res_motorcycle_int6_motorcycle" depart="2284.80" departLane="best" departSpeed="max" from="E30" to="E30.558"/>
    <trip id="res_motorcycle_int6199" type="res_motorcycle_int6_motorcycle" depart="2285.40" departLane="best" departSpeed="max" from="E30" to="E22.488"/>
    <trip id="res_motorcycle_int6201" type="res_motorcycle_int6_motorcycle" depart="2286.60" departLane="best" departSpeed="max" from="E30" to="E31.622"/>
    <trip id="res_motorcycle_int6202" type="res_motorcycle_int6_motorcycle" depart="2287.20" departLane="best" departSpeed="max" from="E31" to="E18.410"/>
    <trip id="res_motorcycle_int6204" type="res_motorcycle_int6_motorcycle" depart="2288.40" departLane="best" departSpeed="max" from="E30" to="E22.488"/>
    <trip id="res_motorcycle_int6205" type="res_motorcycle_int6_motorcycle" depart="2289.00" departLane="best" departSpeed="max" from="E31" to="E31.622"/>
    <trip id="res_motorcycle_int6206" type="res_motorcycle_int6_motorcycle" depart="2289.60" departLane="best" departSpeed="max" from="E31" to="E18.410"/>
    <trip id="res_motorcycle_int6207" type="res_motorcycle_int6_motorcycle" depart="2290.20" departLane="best" departSpeed="max" from="E22" to="E18.410"/>
    <trip id="res_motorcycle_int6208" type="res_motorcycle_int6_motorcycle" depart="2290.80" departLane="best" departSpeed="max" from="E30" to="E22.488"/>
    <trip id="res_motorcycle_int6209" type="res_motorcycle_int6_motorcycle" depart="2291.40" departLane="best" departSpeed="max" from="E31" to="E18.410"/>
    <trip id="res_motorcycle_int6210" type="res_motorcycle_int6_motorcycle" depart="2292.00" departLane="best" departSpeed="max" from="E30" to="E30.558"/>
    <trip id="res_motorcycle_int6211" type="res_motorcycle_int6_motorcycle" depart="2292.60" departLane="best" departSpeed="max" from="E22" to="E30.558"/>
    <trip id="res_motorcycle_int6214" type="res_motorcycle_int6_motorcycle" depart="2294.40" departLane="best" departSpeed="max" from="E31" to="E31.622"/>
    <trip id="res_motorcycle_int6215" type="res_motorcycle_int6_motorcycle" depart="2295.00" departLane="best" departSpeed="max" from="E18" to="E22.488"/>
    <trip id="res_motorcycle_int6218" type="res_motorcycle_int6_motorcycle" depart="2296.80" departLane="best" departSpeed="max" from="E30" to="E31.622"/>
    <trip id="res_motorcycle_int6219" type="res_motorcycle_int6_motorcycle" depart="2297.40" departLane="best" departSpeed="max" from="E30" to="E31.622"/>
    <trip id="res_motorcycle_int6220" type="res_motorcycle_int6_motorcycle" depart="2298.00" departLane="best" departSpeed="max" from="E31" to="E31.622"/>
    <trip id="res_motorcycle_int6221" type="res_motorcycle_int6_motorcycle" depart="2298.60" departLane="best" departSpeed="max" from="E30" to="E31.622"/>
    <trip id="res_motorcycle_int6222" type="res_motorcycle_int6_motorcycle" depart="2299.20" departLane="best" departSpeed="max" from="E31" to="E30.558"/>
    <trip id="res_motorcycle_int6223" type="res_motorcycle_int6_motorcycle" depart="2299.80" departLane="best" departSpeed="max" from="E31" to="E30.558"/>
    <trip id="res_motorcycle_int6224" type="res_motorcycle_int6_motorcycle" depart="2300.40" departLane="best" departSpeed="max" from="E31" to="E30.558"/>
    <trip id="res_motorcycle_int6225" type="res_motorcycle_int6_motorcycle" depart="2301.00" departLane="best" departSpeed="max" from="E31" to="E30.558"/>
    <trip id="res_motorcycle_int6226" type="res_motorcycle_int6_motorcycle" depart="2301.60" departLane="best" departSpeed="max" from="E30" to="E22.488"/>
    <trip id="res_motorcycle_int6227" type="res_motorcycle_int6_motorcycle" depart="2302.20" departLane="best" departSpeed="max" from="E30" to="E30.558"/>
    <trip id="res_motorcycle_int6228" type="res_motorcycle_int6_motorcycle" depart="2302.80" departLane="best" departSpeed="max" from="E31" to="E30.558"/>
    <trip id="res_motorcycle_int6229" type="res_motorcycle_int6_motorcycle" depart="2303.40" departLane="best" departSpeed="max" from="E30" to="E22.488"/>
    <trip id="res_motorcycle_int6230" type="res_motorcycle_int6_motorcycle" depart="2304.00" departLane="best" departSpeed="max" from="E18" to="E22.488"/>