<routes>

<!-- generated on 2025-08-07 05:47:18.631080 by randomTrips.py v1_22_0+0002-63e50f52594
<configuration>
    <net-file value="osm.net.xml.gz"/>
    <weights-prefix value="random_edge_priority_interval_0"/>
    <output-trip-file value="osm.res_ped.interval_0.trips.xml"/>
    <route-file value="osm.res_ped.interval_0.rou.xml"/>
    <prefix value="res_ped_int0"/>
    <trip-attributes value="departLane=&quot;best&quot;"/>
    <fringe-start-attributes value="departSpeed=&quot;max&quot;"/>
    <vclass value="pedestrian"/>
    <via-edge-types value="footway,path,sidewalk"/>
    <remove-loops value="True"/>
    <validate value="True"/>
    <end value="360.0"/>
    <insertion-rate value="100.0"/>
</configuration>
-->

<!-- generated on 2025-08-07 05:47:18 by Eclipse SUMO duarouter Version 1.22.0
<duarouterConfiguration xmlns:xsi="http://www.w3.org/2001/XMLSchema-instance" xsi:noNamespaceSchemaLocation="http://sumo.dlr.de/xsd/duarouterConfiguration.xsd">

    <input>
        <net-file value="osm.net.xml.gz"/>
        <route-files value="osm.res_ped.interval_0.trips.xml"/>
    </input>

    <output>
        <output-file value="osm.res_ped.interval_0.trips.xml.tmp"/>
        <alternatives-output value="NUL"/>
        <write-trips value="true"/>
    </output>

    <processing>
        <remove-loops value="true"/>
    </processing>

    <time>
        <begin value="0.0"/>
        <end value="360.0"/>
    </time>

    <report>
        <no-warnings value="true"/>
        <ignore-errors value="true"/>
        <no-step-log value="true"/>
    </report>

</duarouterConfiguration>
-->

    <trip id="res_ped_int01" depart="36.00" departLane="best" departSpeed="max" from="E18" to="E18.410"/>
    <trip id="res_ped_int02" depart="72.00" departLane="best" departSpeed="max" from="E31" to="E30.558"/>
    <trip id="res_ped_int03" depart="108.00" departLane="best" departSpeed="max" from="E31" to="E18.410"/>
    <trip id="res_ped_int06" depart="216.00" departLane="best" departSpeed="max" from="E18" to="E18.410"/>
    <trip id="res_ped_int07" depart="252.00" departLane="best" departSpeed="max" from="E31" to="E30.558"/>
    <trip id="res_ped_int09" depart="324.00" departLane="best" departSpeed="max" from="E31" to="E18.410"/>

<!-- generated on 2025-08-07 05:47:19.350763 by randomTrips.py v1_22_0+0002-63e50f52594
<configuration>
    <net-file value="osm.net.xml.gz"/>
    <weights-prefix value="random_edge_priority_interval_1"/>
    <output-trip-file value="osm.res_ped.interval_1.trips.xml"/>
    <route-file value="osm.res_ped.interval_1.rou.xml"/>
    <prefix value="res_ped_int1"/>
    <trip-attributes value="departLane=&quot;best&quot;"/>
    <fringe-start-attributes value="departSpeed=&quot;max&quot;"/>
    <vclass value="pedestrian"/>
    <via-edge-types value="footway,path,sidewalk"/>
    <remove-loops value="True"/>
    <validate value="True"/>
    <begin value="361.0"/>
    <end value="721.0"/>
    <insertion-rate value="100.0"/>
</configuration>
-->

<!-- generated on 2025-08-07 05:47:19 by Eclipse SUMO duarouter Version 1.22.0
<duarouterConfiguration xmlns:xsi="http://www.w3.org/2001/XMLSchema-instance" xsi:noNamespaceSchemaLocation="http://sumo.dlr.de/xsd/duarouterConfiguration.xsd">

    <input>
        <net-file value="osm.net.xml.gz"/>
        <route-files value="osm.res_ped.interval_1.trips.xml"/>
    </input>

    <output>
        <output-file value="osm.res_ped.interval_1.trips.xml.tmp"/>
        <alternatives-output value="NUL"/>
        <write-trips value="true"/>
    </output>

    <processing>
        <remove-loops value="true"/>
    </processing>

    <time>
        <begin value="361.0"/>
        <end value="721.0"/>
    </time>

    <report>
        <no-warnings value="true"/>
        <ignore-errors value="true"/>
        <no-step-log value="true"/>
    </report>

</duarouterConfiguration>
-->

    <trip id="res_ped_int11" depart="397.00" departLane="best" departSpeed="max" from="E18" to="E18.410"/>
    <trip id="res_ped_int12" depart="433.00" departLane="best" departSpeed="max" from="E30" to="E30.558"/>
    <trip id="res_ped_int13" depart="469.00" departLane="best" departSpeed="max" from="E31" to="E18.410"/>
    <trip id="res_ped_int14" depart="505.00" departLane="best" departSpeed="max" from="E22" to="E18.410"/>
    <trip id="res_ped_int16" depart="577.00" departLane="best" departSpeed="max" from="E18" to="E18.410"/>
    <trip id="res_ped_int17" depart="613.00" departLane="best" departSpeed="max" from="E30" to="E30.558"/>

<!-- generated on 2025-08-07 05:47:20.070969 by randomTrips.py v1_22_0+0002-63e50f52594
<configuration>
    <net-file value="osm.net.xml.gz"/>
    <weights-prefix value="random_edge_priority_interval_2"/>
    <output-trip-file value="osm.res_ped.interval_2.trips.xml"/>
    <route-file value="osm.res_ped.interval_2.rou.xml"/>
    <prefix value="res_ped_int2"/>
    <trip-attributes value="departLane=&quot;best&quot;"/>
    <fringe-start-attributes value="departSpeed=&quot;max&quot;"/>
    <vclass value="pedestrian"/>
    <via-edge-types value="footway,path,sidewalk"/>
    <remove-loops value="True"/>
    <validate value="True"/>
    <begin value="722.0"/>
    <end value="1082.0"/>
    <insertion-rate value="100.0"/>
</configuration>
-->

<!-- generated on 2025-08-07 05:47:20 by Eclipse SUMO duarouter Version 1.22.0
<duarouterConfiguration xmlns:xsi="http://www.w3.org/2001/XMLSchema-instance" xsi:noNamespaceSchemaLocation="http://sumo.dlr.de/xsd/duarouterConfiguration.xsd">

    <input>
        <net-file value="osm.net.xml.gz"/>
        <route-files value="osm.res_ped.interval_2.trips.xml"/>
    </input>

    <output>
        <output-file value="osm.res_ped.interval_2.trips.xml.tmp"/>
        <alternatives-output value="NUL"/>
        <write-trips value="true"/>
    </output>

    <processing>
        <remove-loops value="true"/>
    </processing>

    <time>
        <begin value="722.0"/>
        <end value="1082.0"/>
    </time>

    <report>
        <no-warnings value="true"/>
        <ignore-errors value="true"/>
        <no-step-log value="true"/>
    </report>

</duarouterConfiguration>
-->

    <trip id="res_ped_int21" depart="758.00" departLane="best" departSpeed="max" from="E18" to="E18.410"/>
    <trip id="res_ped_int22" depart="794.00" departLane="best" departSpeed="max" from="E30" to="E30.558"/>
    <trip id="res_ped_int23" depart="830.00" departLane="best" departSpeed="max" from="E31" to="E18.410"/>
    <trip id="res_ped_int24" depart="866.00" departLane="best" departSpeed="max" from="E22" to="E18.410"/>
    <trip id="res_ped_int26" depart="938.00" departLane="best" departSpeed="max" from="E18" to="E18.410"/>
    <trip id="res_ped_int27" depart="974.00" departLane="best" departSpeed="max" from="E30" to="E30.558"/>
    <trip id="res_ped_int29" depart="1046.00" departLane="best" departSpeed="max" from="E31" to="E18.410"/>

<!-- generated on 2025-08-07 05:47:20.794782 by randomTrips.py v1_22_0+0002-63e50f52594
<configuration>
    <net-file value="osm.net.xml.gz"/>
    <weights-prefix value="random_edge_priority_interval_3"/>
    <output-trip-file value="osm.res_ped.interval_3.trips.xml"/>
    <route-file value="osm.res_ped.interval_3.rou.xml"/>
    <prefix value="res_ped_int3"/>
    <trip-attributes value="departLane=&quot;best&quot;"/>
    <fringe-start-attributes value="departSpeed=&quot;max&quot;"/>
    <vclass value="pedestrian"/>
    <via-edge-types value="footway,path,sidewalk"/>
    <remove-loops value="True"/>
    <validate value="True"/>
    <begin value="1083.0"/>
    <end value="1443.0"/>
    <insertion-rate value="100.0"/>
</configuration>
-->

<!-- generated on 2025-08-07 05:47:20 by Eclipse SUMO duarouter Version 1.22.0
<duarouterConfiguration xmlns:xsi="http://www.w3.org/2001/XMLSchema-instance" xsi:noNamespaceSchemaLocation="http://sumo.dlr.de/xsd/duarouterConfiguration.xsd">

    <input>
        <net-file value="osm.net.xml.gz"/>
        <route-files value="osm.res_ped.interval_3.trips.xml"/>
    </input>

    <output>
        <output-file value="osm.res_ped.interval_3.trips.xml.tmp"/>
        <alternatives-output value="NUL"/>
        <write-trips value="true"/>
    </output>

    <processing>
        <remove-loops value="true"/>
    </processing>

    <time>
        <begin value="1083.0"/>
        <end value="1443.0"/>
    </time>

    <report>
        <no-warnings value="true"/>
        <ignore-errors value="true"/>
        <no-step-log value="true"/>
    </report>

</duarouterConfiguration>
-->

    <trip id="res_ped_int31" depart="1119.00" departLane="best" departSpeed="max" from="E22" to="E18.410"/>
    <trip id="res_ped_int32" depart="1155.00" departLane="best" departSpeed="max" from="E30" to="E30.558"/>
    <trip id="res_ped_int33" depart="1191.00" departLane="best" departSpeed="max" from="E31" to="E18.410"/>
    <trip id="res_ped_int35" depart="1263.00" departLane="best" departSpeed="max" from="E22" to="E30.558"/>
    <trip id="res_ped_int36" depart="1299.00" departLane="best" departSpeed="max" from="E18" to="E18.410"/>
    <trip id="res_ped_int37" depart="1335.00" departLane="best" departSpeed="max" from="E30" to="E30.558"/>
    <trip id="res_ped_int38" depart="1371.00" departLane="best" departSpeed="max" from="E22" to="E30.558"/>
    <trip id="res_ped_int39" depart="1407.00" departLane="best" departSpeed="max" from="E31" to="E18.410"/>

<!-- generated on 2025-08-07 05:47:21.532043 by randomTrips.py v1_22_0+0002-63e50f52594
<configuration>
    <net-file value="osm.net.xml.gz"/>
    <weights-prefix value="random_edge_priority_interval_4"/>
    <output-trip-file value="osm.res_ped.interval_4.trips.xml"/>
    <route-file value="osm.res_ped.interval_4.rou.xml"/>
    <prefix value="res_ped_int4"/>
    <trip-attributes value="departLane=&quot;best&quot;"/>
    <fringe-start-attributes value="departSpeed=&quot;max&quot;"/>
    <vclass value="pedestrian"/>
    <via-edge-types value="footway,path,sidewalk"/>
    <remove-loops value="True"/>
    <validate value="True"/>
    <begin value="1444.0"/>
    <end value="1804.0"/>
    <insertion-rate value="100.0"/>
</configuration>
-->

<!-- generated on 2025-08-07 05:47:21 by Eclipse SUMO duarouter Version 1.22.0
<duarouterConfiguration xmlns:xsi="http://www.w3.org/2001/XMLSchema-instance" xsi:noNamespaceSchemaLocation="http://sumo.dlr.de/xsd/duarouterConfiguration.xsd">

    <input>
        <net-file value="osm.net.xml.gz"/>
        <route-files value="osm.res_ped.interval_4.trips.xml"/>
    </input>

    <output>
        <output-file value="osm.res_ped.interval_4.trips.xml.tmp"/>
        <alternatives-output value="NUL"/>
        <write-trips value="true"/>
    </output>

    <processing>
        <remove-loops value="true"/>
    </processing>

    <time>
        <begin value="1444.0"/>
        <end value="1804.0"/>
    </time>

    <report>
        <no-warnings value="true"/>
        <ignore-errors value="true"/>
        <no-step-log value="true"/>
    </report>

</duarouterConfiguration>
-->

    <trip id="res_ped_int41" depart="1480.00" departLane="best" departSpeed="max" from="E22" to="E18.410"/>
    <trip id="res_ped_int42" depart="1516.00" departLane="best" departSpeed="max" from="E30" to="E30.558"/>
    <trip id="res_ped_int43" depart="1552.00" departLane="best" departSpeed="max" from="E31" to="E18.410"/>
    <trip id="res_ped_int44" depart="1588.00" departLane="best" departSpeed="max" from="E22" to="E18.410"/>
    <trip id="res_ped_int45" depart="1624.00" departLane="best" departSpeed="max" from="E22" to="E30.558"/>
    <trip id="res_ped_int46" depart="1660.00" departLane="best" departSpeed="max" from="E18" to="E18.410"/>
    <trip id="res_ped_int47" depart="1696.00" departLane="best" departSpeed="max" from="E30" to="E30.558"/>
    <trip id="res_ped_int48" depart="1732.00" departLane="best" departSpeed="max" from="E22" to="E30.558"/>

<!-- generated on 2025-08-07 05:47:22.265906 by randomTrips.py v1_22_0+0002-63e50f52594
<configuration>
    <net-file value="osm.net.xml.gz"/>
    <weights-prefix value="random_edge_priority_interval_5"/>
    <output-trip-file value="osm.res_ped.interval_5.trips.xml"/>
    <route-file value="osm.res_ped.interval_5.rou.xml"/>
    <prefix value="res_ped_int5"/>
    <trip-attributes value="departLane=&quot;best&quot;"/>
    <fringe-start-attributes value="departSpeed=&quot;max&quot;"/>
    <vclass value="pedestrian"/>
    <via-edge-types value="footway,path,sidewalk"/>
    <remove-loops value="True"/>
    <validate value="True"/>
    <begin value="1805.0"/>
    <end value="2165.0"/>
    <insertion-rate value="100.0"/>
</configuration>
-->

<!-- generated on 2025-08-07 05:47:22 by Eclipse SUMO duarouter Version 1.22.0
<duarouterConfiguration xmlns:xsi="http://www.w3.org/2001/XMLSchema-instance" xsi:noNamespaceSchemaLocation="http://sumo.dlr.de/xsd/duarouterConfiguration.xsd">

    <input>
        <net-file value="osm.net.xml.gz"/>
        <route-files value="osm.res_ped.interval_5.trips.xml"/>
    </input>

    <output>
        <output-file value="osm.res_ped.interval_5.trips.xml.tmp"/>
        <alternatives-output value="NUL"/>
        <write-trips value="true"/>
    </output>

    <processing>
        <remove-loops value="true"/>
    </processing>

    <time>
        <begin value="1805.0"/>
        <end value="2165.0"/>
    </time>

    <report>
        <no-warnings value="true"/>
        <ignore-errors value="true"/>
        <no-step-log value="true"/>
    </report>

</duarouterConfiguration>
-->

    <trip id="res_ped_int50" depart="1805.00" departLane="best" departSpeed="max" from="E22" to="E18.410"/>
    <trip id="res_ped_int51" depart="1841.00" departLane="best" departSpeed="max" from="E18" to="E18.410"/>
    <trip id="res_ped_int52" depart="1877.00" departLane="best" departSpeed="max" from="E22" to="E30.558"/>
    <trip id="res_ped_int53" depart="1913.00" departLane="best" departSpeed="max" from="E31" to="E18.410"/>
    <trip id="res_ped_int54" depart="1949.00" departLane="best" departSpeed="max" from="E18" to="E18.410"/>
    <trip id="res_ped_int56" depart="2021.00" departLane="best" departSpeed="max" from="E18" to="E18.410"/>
    <trip id="res_ped_int57" depart="2057.00" departLane="best" departSpeed="max" from="E22" to="E30.558"/>

<!-- generated on 2025-08-07 05:47:22.981703 by randomTrips.py v1_22_0+0002-63e50f52594
<configuration>
    <net-file value="osm.net.xml.gz"/>
    <weights-prefix value="random_edge_priority_interval_6"/>
    <output-trip-file value="osm.res_ped.interval_6.trips.xml"/>
    <route-file value="osm.res_ped.interval_6.rou.xml"/>
    <prefix value="res_ped_int6"/>
    <trip-attributes value="departLane=&quot;best&quot;"/>
    <fringe-start-attributes value="departSpeed=&quot;max&quot;"/>
    <vclass value="pedestrian"/>
    <via-edge-types value="footway,path,sidewalk"/>
    <remove-loops value="True"/>
    <validate value="True"/>
    <begin value="2166.0"/>
    <end value="2526.0"/>
    <insertion-rate value="400.0"/>
</configuration>
-->

<!-- generated on 2025-08-07 05:47:22 by Eclipse SUMO duarouter Version 1.22.0
<duarouterConfiguration xmlns:xsi="http://www.w3.org/2001/XMLSchema-instance" xsi:noNamespaceSchemaLocation="http://sumo.dlr.de/xsd/duarouterConfiguration.xsd">

    <input>
        <net-file value="osm.net.xml.gz"/>
        <route-files value="osm.res_ped.interval_6.trips.xml"/>
    </input>

    <output>
        <output-file value="osm.res_ped.interval_6.trips.xml.tmp"/>
        <alternatives-output value="NUL"/>
        <write-trips value="true"/>
    </output>

    <processing>
        <remove-loops value="true"/>
    </processing>

    <time>
        <begin value="2166.0"/>
        <end value="2526.0"/>
    </time>

    <report>
        <no-warnings value="true"/>
        <ignore-errors value="true"/>
        <no-step-log value="true"/>
    </report>

</duarouterConfiguration>
-->

    <trip id="res_ped_int61" depart="2175.00" departLane="best" departSpeed="max" from="E18" to="E18.410"/>
    <trip id="res_ped_int62" depart="2184.00" departLane="best" departSpeed="max" from="E31" to="E30.558"/>
    <trip id="res_ped_int63" depart="2193.00" departLane="best" departSpeed="max" from="E31" to="E18.410"/>
    <trip id="res_ped_int64" depart="2202.00" departLane="best" departSpeed="max" from="E22" to="E18.410"/>
    <trip id="res_ped_int66" depart="2220.00" departLane="best" departSpeed="max" from="E18" to="E18.410"/>
    <trip id="res_ped_int67" depart="2229.00" departLane="best" departSpeed="max" from="E30" to="E30.558"/>
    <trip id="res_ped_int69" depart="2247.00" departLane="best" departSpeed="max" from="E31" to="E18.410"/>
    <trip id="res_ped_int610" depart="2256.00" departLane="best" departSpeed="max" from="E31" to="E30.558"/>
    <trip id="res_ped_int611" depart="2265.00" departLane="best" departSpeed="max" from="E22" to="E18.410"/>
    <trip id="res_ped_int613" depart="2283.00" departLane="best" departSpeed="max" from="E18" to="E18.410"/>
    <trip id="res_ped_int614" depart="2292.00" departLane="best" departSpeed="max" from="E31" to="E30.558"/>
    <trip id="res_ped_int615" depart="2301.00" departLane="best" departSpeed="max" from="E31" to="E30.558"/>
    <trip id="res_ped_int617" depart="2319.00" departLane="best" departSpeed="max" from="E22" to="E30.558"/>
    <trip id="res_ped_int618" depart="2328.00" departLane="best" departSpeed="max" from="E31" to="E30.558"/>
    <trip id="res_ped_int619" depart="2337.00" departLane="best" departSpeed="max" from="E31" to="E30.558"/>
    <trip id="res_ped_int620" depart="2346.00" departLane="best" departSpeed="max" from="E31" to="E18.410"/>
    <trip id="res_ped_int621" depart="2355.00" departLane="best" departSpeed="max" from="E18" to="E22.488"/>
    <trip id="res_ped_int622" depart="2364.00" departLane="best" departSpeed="max" from="E18" to="E18.410"/>
    <trip id="res_ped_int623" depart="2373.00" departLane="best" departSpeed="max" from="E18" to="E22.488"/>
    <trip id="res_ped_int624" depart="2382.00" departLane="best" departSpeed="max" from="E30" to="E22.488"/>
    <trip id="res_ped_int625" depart="2391.00" departLane="best" departSpeed="max" from="E22" to="E18.410"/>
    <trip id="res_ped_int626" depart="2400.00" departLane="best" departSpeed="max" from="E18" to="E31.622"/>
    <trip id="res_ped_int627" depart="2409.00" departLane="best" departSpeed="max" from="E30" to="E30.558"/>
    <trip id="res_ped_int629" depart="2427.00" departLane="best" departSpeed="max" from="E18" to="E22.488"/>
    <trip id="res_ped_int630" depart="2436.00" departLane="best" departSpeed="max" from="E31" to="E30.558"/>
    <trip id="res_ped_int631" depart="2445.00" departLane="best" departSpeed="max" from="E22" to="E30.558"/>
    <trip id="res_ped_int632" depart="2454.00" departLane="best" departSpeed="max" from="E31" to="E31.622"/>
    <trip id="res_ped_int633" depart="2463.00" departLane="best" departSpeed="max" from="E18" to="E18.410"/>
    <trip id="res_ped_int634" depart="2472.00" departLane="best" departSpeed="max" from="E22" to="E22.488"/>
    <trip id="res_ped_int635" depart="2481.00" departLane="best" departSpeed="max" from="E18" to="E31.622"/>
    <trip id="res_ped_int637" depart="2499.00" departLane="best" departSpeed="max" from="E30" to="E22.488"/>
    <trip id="res_ped_int639" depart="2517.00" departLane="best" departSpeed="max" from="E18" to="E18.410"/>

<!-- generated on 2025-08-07 05:47:23.730924 by randomTrips.py v1_22_0+0002-63e50f52594
<configuration>
    <net-file value="osm.net.xml.gz"/>
    <weights-prefix value="random_edge_priority_interval_7"/>
    <output-trip-file value="osm.res_ped.interval_7.trips.xml"/>
    <route-file value="osm.res_ped.interval_7.rou.xml"/>
    <prefix value="res_ped_int7"/>
    <trip-attributes value="departLane=&quot;best&quot;"/>
    <fringe-start-attributes value="departSpeed=&quot;max&quot;"/>
    <vclass value="pedestrian"/>
    <via-edge-types value="footway,path,sidewalk"/>
    <remove-loops value="True"/>
    <validate value="True"/>
    <begin value="2527.0"/>
    <end value="2887.0"/>
    <insertion-rate value="100.0"/>
</configuration>
-->

<!-- generated on 2025-08-07 05:47:23 by Eclipse SUMO duarouter Version 1.22.0
<duarouterConfiguration xmlns:xsi="http://www.w3.org/2001/XMLSchema-instance" xsi:noNamespaceSchemaLocation="http://sumo.dlr.de/xsd/duarouterConfiguration.xsd">

    <input>
        <net-file value="osm.net.xml.gz"/>
        <route-files value="osm.res_ped.interval_7.trips.xml"/>
    </input>

    <output>
        <output-file value="osm.res_ped.interval_7.trips.xml.tmp"/>
        <alternatives-output value="NUL"/>
        <write-trips value="true"/>
    </output>

    <processing>
        <remove-loops value="true"/>
    </processing>

    <time>
        <begin value="2527.0"/>
        <end value="2887.0"/>
    </time>

    <report>
        <no-warnings value="true"/>
        <ignore-errors value="true"/>
        <no-step-log value="true"/>
    </report>

</duarouterConfiguration>
-->

    <trip id="res_ped_int71" depart="2563.00" departLane="best" departSpeed="max" from="E22" to="E18.410"/>
    <trip id="res_ped_int72" depart="2599.00" departLane="best" departSpeed="max" from="E31" to="E30.558"/>
    <trip id="res_ped_int73" depart="2635.00" departLane="best" departSpeed="max" from="E31" to="E18.410"/>
    <trip id="res_ped_int74" depart="2671.00" departLane="best" departSpeed="max" from="E22" to="E18.410"/>
    <trip id="res_ped_int76" depart="2743.00" departLane="best" departSpeed="max" from="E18" to="E18.410"/>
    <trip id="res_ped_int77" depart="2779.00" departLane="best" departSpeed="max" from="E31" to="E30.558"/>
    <trip id="res_ped_int79" depart="2851.00" departLane="best" departSpeed="max" from="E31" to="E18.410"/>

<!-- generated on 2025-08-07 05:47:24.453788 by randomTrips.py v1_22_0+0002-63e50f52594
<configuration>
    <net-file value="osm.net.xml.gz"/>
    <weights-prefix value="random_edge_priority_interval_8"/>
    <output-trip-file value="osm.res_ped.interval_8.trips.xml"/>
    <route-file value="osm.res_ped.interval_8.rou.xml"/>
    <prefix value="res_ped_int8"/>
    <trip-attributes value="departLane=&quot;best&quot;"/>
    <fringe-start-attributes value="departSpeed=&quot;max&quot;"/>
    <vclass value="pedestrian"/>
    <via-edge-types value="footway,path,sidewalk"/>
    <remove-loops value="True"/>
    <validate value="True"/>
    <begin value="2888.0"/>
    <end value="3248.0"/>
    <insertion-rate value="100.0"/>
</configuration>
-->

<!-- generated on 2025-08-07 05:47:24 by Eclipse SUMO duarouter Version 1.22.0
<duarouterConfiguration xmlns:xsi="http://www.w3.org/2001/XMLSchema-instance" xsi:noNamespaceSchemaLocation="http://sumo.dlr.de/xsd/duarouterConfiguration.xsd">

    <input>
        <net-file value="osm.net.xml.gz"/>
        <route-files value="osm.res_ped.interval_8.trips.xml"/>
    </input>

    <output>
        <output-file value="osm.res_ped.interval_8.trips.xml.tmp"/>
        <alternatives-output value="NUL"/>
        <write-trips value="true"/>
    </output>

    <processing>
        <remove-loops value="true"/>
    </processing>

    <time>
        <begin value="2888.0"/>
        <end value="3248.0"/>
    </time>

    <report>
        <no-warnings value="true"/>
        <ignore-errors value="true"/>
        <no-step-log value="true"/>
    </report>

</duarouterConfiguration>
-->

    <trip id="res_ped_int81" depart="2924.00" departLane="best" departSpeed="max" from="E18" to="E18.410"/>
    <trip id="res_ped_int82" depart="2960.00" departLane="best" departSpeed="max" from="E30" to="E30.558"/>
    <trip id="res_ped_int84" depart="3032.00" departLane="best" departSpeed="max" from="E22" to="E18.410"/>
    <trip id="res_ped_int86" depart="3104.00" departLane="best" departSpeed="max" from="E18" to="E18.410"/>
    <trip id="res_ped_int87" depart="3140.00" departLane="best" departSpeed="max" from="E30" to="E30.558"/>

<!-- generated on 2025-08-07 05:47:25.172874 by randomTrips.py v1_22_0+0002-63e50f52594
<configuration>
    <net-file value="osm.net.xml.gz"/>
    <weights-prefix value="random_edge_priority_interval_9"/>
    <output-trip-file value="osm.res_ped.interval_9.trips.xml"/>
    <route-file value="osm.res_ped.interval_9.rou.xml"/>
    <prefix value="res_ped_int9"/>
    <trip-attributes value="departLane=&quot;best&quot;"/>
    <fringe-start-attributes value="departSpeed=&quot;max&quot;"/>
    <vclass value="pedestrian"/>
    <via-edge-types value="footway,path,sidewalk"/>
    <remove-loops value="True"/>
    <validate value="True"/>
    <begin value="3249.0"/>
    <insertion-rate value="102.56410256410257"/>
</configuration>
-->

<!-- generated on 2025-08-07 05:47:25 by Eclipse SUMO duarouter Version 1.22.0
<duarouterConfiguration xmlns:xsi="http://www.w3.org/2001/XMLSchema-instance" xsi:noNamespaceSchemaLocation="http://sumo.dlr.de/xsd/duarouterConfiguration.xsd">

    <input>
        <net-file value="osm.net.xml.gz"/>
        <route-files value="osm.res_ped.interval_9.trips.xml"/>
    </input>

    <output>
        <output-file value="osm.res_ped.interval_9.trips.xml.tmp"/>
        <alternatives-output value="NUL"/>
        <write-trips value="true"/>
    </output>

    <processing>
        <remove-loops value="true"/>
    </processing>

    <time>
        <begin value="3249.0"/>
        <end value="3600.0"/>
    </time>

    <report>
        <no-warnings value="true"/>
        <ignore-errors value="true"/>
        <no-step-log value="true"/>
    </report>

</duarouterConfiguration>
-->

    <trip id="res_ped_int91" depart="3284.10" departLane="best" departSpeed="max" from="E22" to="E18.410"/>
    <trip id="res_ped_int92" depart="3319.20" departLane="best" departSpeed="max" from="E31" to="E30.558"/>
    <trip id="res_ped_int93" depart="3354.30" departLane="best" departSpeed="max" from="E31" to="E18.410"/>
    <trip id="res_ped_int95" depart="3424.50" departLane="best" departSpeed="max" from="E22" to="E30.558"/>
    <trip id="res_ped_int96" depart="3459.60" departLane="best" departSpeed="max" from="E18" to="E18.410"/>
    <trip id="res_ped_int97" depart="3494.70" departLane="best" departSpeed="max" from="E30" to="E30.558"/>
    <trip id="res_ped_int98" depart="3529.80" departLane="best" departSpeed="max" from="E22" to="E30.558"/>
    <trip id="res_ped_int99" depart="3564.90" departLane="best" departSpeed="max" from="E31" to="E18.410"/>
</routes>
