<routes>

<!-- generated on 2025-08-19 18:12:34.138232 by randomTrips.py UNKNOWN
<configuration>
    <net-file value="osm.net.xml.gz"/>
    <weights-prefix value="random_edge_priority_interval_0"/>
    <output-trip-file value="osm.res_truck.interval_0.trips.xml"/>
    <route-file value="osm.res_truck.interval_0.rou.xml"/>
    <prefix value="res_truck_int0"/>
    <trip-attributes value="departLane=&quot;best&quot;"/>
    <fringe-start-attributes value="departSpeed=&quot;max&quot;"/>
    <vehicle-class value="truck"/>
    <vclass value="truck"/>
    <remove-loops value="True"/>
    <validate value="True"/>
    <verbose value="True"/>
    <insertion-rate value="15.0"/>
</configuration>
-->

<!-- generated on 2025-08-19 18:12:34 by Eclipse SUMO duarouter Version 1.22.0
<duarouterConfiguration xmlns:xsi="http://www.w3.org/2001/XMLSchema-instance" xsi:noNamespaceSchemaLocation="http://sumo.dlr.de/xsd/duarouterConfiguration.xsd">

    <input>
        <net-file value="osm.net.xml.gz"/>
        <route-files value="osm.res_truck.interval_0.trips.xml"/>
    </input>

    <output>
        <output-file value="osm.res_truck.interval_0.trips.xml.tmp"/>
        <alternatives-output value="NUL"/>
        <write-trips value="true"/>
    </output>

    <processing>
        <remove-loops value="true"/>
    </processing>

    <time>
        <begin value="0.0"/>
        <end value="3600.0"/>
    </time>

    <report>
        <verbose value="true"/>
        <ignore-errors value="true"/>
        <no-step-log value="true"/>
    </report>

</duarouterConfiguration>
-->

    <vType id="res_truck_int0_truck" vClass="truck"/>
    <trip id="res_truck_int01" type="res_truck_int0_truck" depart="240.00" departLane="best" departSpeed="max" from="E22" to="E18.410"/>
    <trip id="res_truck_int02" type="res_truck_int0_truck" depart="480.00" departLane="best" departSpeed="max" from="E30" to="E30.558"/>
    <trip id="res_truck_int04" type="res_truck_int0_truck" depart="960.00" departLane="best" departSpeed="max" from="E22" to="E18.410"/>
    <trip id="res_truck_int05" type="res_truck_int0_truck" depart="1200.00" departLane="best" departSpeed="max" from="E22" to="E30.558"/>
    <trip id="res_truck_int06" type="res_truck_int0_truck" depart="1440.00" departLane="best" departSpeed="max" from="E18" to="E18.410"/>
    <trip id="res_truck_int07" type="res_truck_int0_truck" depart="1680.00" departLane="best" departSpeed="max" from="E30" to="E30.558"/>
    <trip id="res_truck_int08" type="res_truck_int0_truck" depart="1920.00" departLane="best" departSpeed="max" from="E22" to="E30.558"/>
    <trip id="res_truck_int010" type="res_truck_int0_truck" depart="2400.00" departLane="best" departSpeed="max" from="E30" to="E30.558"/>
    <trip id="res_truck_int011" type="res_truck_int0_truck" depart="2640.00" departLane="best" departSpeed="max" from="E22" to="E18.410"/>
    <trip id="res_truck_int013" type="res_truck_int0_truck" depart="3120.00" departLane="best" departSpeed="max" from="E22" to="E18.410"/>
    <trip id="res_truck_int014" type="res_truck_int0_truck" depart="3360.00" departLane="best" departSpeed="max" from="E30" to="E30.558"/>

<!-- generated on 2025-08-19 18:12:34.869727 by randomTrips.py UNKNOWN
<configuration>
    <net-file value="osm.net.xml.gz"/>
    <weights-prefix value="random_edge_priority_interval_1"/>
    <output-trip-file value="osm.res_truck.interval_1.trips.xml"/>
    <route-file value="osm.res_truck.interval_1.rou.xml"/>
    <prefix value="res_truck_int1"/>
    <trip-attributes value="departLane=&quot;best&quot;"/>
    <fringe-start-attributes value="departSpeed=&quot;max&quot;"/>
    <vehicle-class value="truck"/>
    <vclass value="truck"/>
    <remove-loops value="True"/>
    <validate value="True"/>
    <verbose value="True"/>
    <begin value="3601.0"/>
    <end value="7200.0"/>
    <insertion-rate value="30.00833564879133"/>
</configuration>
-->

<!-- generated on 2025-08-19 18:12:34 by Eclipse SUMO duarouter Version 1.22.0
<duarouterConfiguration xmlns:xsi="http://www.w3.org/2001/XMLSchema-instance" xsi:noNamespaceSchemaLocation="http://sumo.dlr.de/xsd/duarouterConfiguration.xsd">

    <input>
        <net-file value="osm.net.xml.gz"/>
        <route-files value="osm.res_truck.interval_1.trips.xml"/>
    </input>

    <output>
        <output-file value="osm.res_truck.interval_1.trips.xml.tmp"/>
        <alternatives-output value="NUL"/>
        <write-trips value="true"/>
    </output>

    <processing>
        <remove-loops value="true"/>
    </processing>

    <time>
        <begin value="3601.0"/>
        <end value="7200.0"/>
    </time>

    <report>
        <verbose value="true"/>
        <ignore-errors value="true"/>
        <no-step-log value="true"/>
    </report>

</duarouterConfiguration>
-->

    <vType id="res_truck_int1_truck" vClass="truck"/>
    <trip id="res_truck_int10" type="res_truck_int1_truck" depart="3601.00" departLane="best" departSpeed="max" from="E31" to="E18.410"/>
    <trip id="res_truck_int11" type="res_truck_int1_truck" depart="3720.97" departLane="best" departSpeed="max" from="E18" to="E18.410"/>
    <trip id="res_truck_int12" type="res_truck_int1_truck" depart="3840.93" departLane="best" departSpeed="max" from="E31" to="E30.558"/>
    <trip id="res_truck_int13" type="res_truck_int1_truck" depart="3960.90" departLane="best" departSpeed="max" from="E31" to="E18.410"/>
    <trip id="res_truck_int16" type="res_truck_int1_truck" depart="4320.80" departLane="best" departSpeed="max" from="E18" to="E18.410"/>
    <trip id="res_truck_int17" type="res_truck_int1_truck" depart="4440.77" departLane="best" departSpeed="max" from="E31" to="E30.558"/>
    <trip id="res_truck_int19" type="res_truck_int1_truck" depart="4680.70" departLane="best" departSpeed="max" from="E31" to="E18.410"/>
    <trip id="res_truck_int110" type="res_truck_int1_truck" depart="4800.67" departLane="best" departSpeed="max" from="E31" to="E30.558"/>
    <trip id="res_truck_int111" type="res_truck_int1_truck" depart="4920.63" departLane="best" departSpeed="max" from="E18" to="E18.410"/>
    <trip id="res_truck_int113" type="res_truck_int1_truck" depart="5160.57" departLane="best" departSpeed="max" from="E18" to="E18.410"/>
    <trip id="res_truck_int114" type="res_truck_int1_truck" depart="5280.53" departLane="best" departSpeed="max" from="E31" to="E30.558"/>
    <trip id="res_truck_int115" type="res_truck_int1_truck" depart="5400.50" departLane="best" departSpeed="max" from="E31" to="E30.558"/>
    <trip id="res_truck_int116" type="res_truck_int1_truck" depart="5520.47" departLane="best" departSpeed="max" from="E30" to="E31.622"/>
    <trip id="res_truck_int117" type="res_truck_int1_truck" depart="5640.43" departLane="best" departSpeed="max" from="E30" to="E30.558"/>
    <trip id="res_truck_int118" type="res_truck_int1_truck" depart="5760.40" departLane="best" departSpeed="max" from="E31" to="E30.558"/>
    <trip id="res_truck_int119" type="res_truck_int1_truck" depart="5880.37" departLane="best" departSpeed="max" from="E31" to="E30.558"/>
    <trip id="res_truck_int120" type="res_truck_int1_truck" depart="6000.33" departLane="best" departSpeed="max" from="E31" to="E18.410"/>
    <trip id="res_truck_int121" type="res_truck_int1_truck" depart="6120.30" departLane="best" departSpeed="max" from="E18" to="E22.488"/>
    <trip id="res_truck_int122" type="res_truck_int1_truck" depart="6240.27" departLane="best" departSpeed="max" from="E18" to="E18.410"/>
    <trip id="res_truck_int123" type="res_truck_int1_truck" depart="6360.23" departLane="best" departSpeed="max" from="E18" to="E22.488"/>
    <trip id="res_truck_int126" type="res_truck_int1_truck" depart="6720.13" departLane="best" departSpeed="max" from="E18" to="E31.622"/>
    <trip id="res_truck_int127" type="res_truck_int1_truck" depart="6840.10" departLane="best" departSpeed="max" from="E31" to="E30.558"/>
    <trip id="res_truck_int129" type="res_truck_int1_truck" depart="7080.03" departLane="best" departSpeed="max" from="E18" to="E22.488"/>

<!-- generated on 2025-08-19 18:12:35.598751 by randomTrips.py UNKNOWN
<configuration>
    <net-file value="osm.net.xml.gz"/>
    <weights-prefix value="random_edge_priority_interval_2"/>
    <output-trip-file value="osm.res_truck.interval_2.trips.xml"/>
    <route-file value="osm.res_truck.interval_2.rou.xml"/>
    <prefix value="res_truck_int2"/>
    <trip-attributes value="departLane=&quot;best&quot;"/>
    <fringe-start-attributes value="departSpeed=&quot;max&quot;"/>
    <vehicle-class value="truck"/>
    <vclass value="truck"/>
    <remove-loops value="True"/>
    <validate value="True"/>
    <verbose value="True"/>
    <begin value="722.0"/>
    <end value="1082.0"/>
    <insertion-rate value="150.0"/>
</configuration>
-->

<!-- generated on 2025-08-19 18:12:35 by Eclipse SUMO duarouter Version 1.22.0
<duarouterConfiguration xmlns:xsi="http://www.w3.org/2001/XMLSchema-instance" xsi:noNamespaceSchemaLocation="http://sumo.dlr.de/xsd/duarouterConfiguration.xsd">

    <input>
        <net-file value="osm.net.xml.gz"/>
        <route-files value="osm.res_truck.interval_2.trips.xml"/>
    </input>

    <output>
        <output-file value="osm.res_truck.interval_2.trips.xml.tmp"/>
        <alternatives-output value="NUL"/>
        <write-trips value="true"/>
    </output>

    <processing>
        <remove-loops value="true"/>
    </processing>

    <time>
        <begin value="722.0"/>
        <end value="1082.0"/>
    </time>

    <report>
        <verbose value="true"/>
        <ignore-errors value="true"/>
        <no-step-log value="true"/>
    </report>

</duarouterConfiguration>
-->

    <vType id="res_truck_int2_truck" vClass="truck"/>
    <trip id="res_truck_int20" type="res_truck_int2_truck" depart="722.00" departLane="best" departSpeed="max" from="E31" to="E18.410"/>
    <trip id="res_truck_int21" type="res_truck_int2_truck" depart="746.00" departLane="best" departSpeed="max" from="E18" to="E18.410"/>
    <trip id="res_truck_int22" type="res_truck_int2_truck" depart="770.00" departLane="best" departSpeed="max" from="E31" to="E30.558"/>
    <trip id="res_truck_int23" type="res_truck_int2_truck" depart="794.00" departLane="best" departSpeed="max" from="E31" to="E18.410"/>
    <trip id="res_truck_int26" type="res_truck_int2_truck" depart="866.00" departLane="best" departSpeed="max" from="E18" to="E18.410"/>
    <trip id="res_truck_int27" type="res_truck_int2_truck" depart="890.00" departLane="best" departSpeed="max" from="E31" to="E30.558"/>
    <trip id="res_truck_int29" type="res_truck_int2_truck" depart="938.00" departLane="best" departSpeed="max" from="E31" to="E18.410"/>
    <trip id="res_truck_int210" type="res_truck_int2_truck" depart="962.00" departLane="best" departSpeed="max" from="E31" to="E30.558"/>
    <trip id="res_truck_int211" type="res_truck_int2_truck" depart="986.00" departLane="best" departSpeed="max" from="E18" to="E18.410"/>
    <trip id="res_truck_int213" type="res_truck_int2_truck" depart="1034.00" departLane="best" departSpeed="max" from="E18" to="E18.410"/>
    <trip id="res_truck_int214" type="res_truck_int2_truck" depart="1058.00" departLane="best" departSpeed="max" from="E31" to="E30.558"/>

<!-- generated on 2025-08-19 18:12:36.354254 by randomTrips.py UNKNOWN
<configuration>
    <net-file value="osm.net.xml.gz"/>
    <weights-prefix value="random_edge_priority_interval_3"/>
    <output-trip-file value="osm.res_truck.interval_3.trips.xml"/>
    <route-file value="osm.res_truck.interval_3.rou.xml"/>
    <prefix value="res_truck_int3"/>
    <trip-attributes value="departLane=&quot;best&quot;"/>
    <fringe-start-attributes value="departSpeed=&quot;max&quot;"/>
    <vehicle-class value="truck"/>
    <vclass value="truck"/>
    <remove-loops value="True"/>
    <validate value="True"/>
    <verbose value="True"/>
    <begin value="1083.0"/>
    <end value="1443.0"/>
    <insertion-rate value="150.0"/>
</configuration>
-->

<!-- generated on 2025-08-19 18:12:36 by Eclipse SUMO duarouter Version 1.22.0
<duarouterConfiguration xmlns:xsi="http://www.w3.org/2001/XMLSchema-instance" xsi:noNamespaceSchemaLocation="http://sumo.dlr.de/xsd/duarouterConfiguration.xsd">

    <input>
        <net-file value="osm.net.xml.gz"/>
        <route-files value="osm.res_truck.interval_3.trips.xml"/>
    </input>

    <output>
        <output-file value="osm.res_truck.interval_3.trips.xml.tmp"/>
        <alternatives-output value="NUL"/>
        <write-trips value="true"/>
    </output>

    <processing>
        <remove-loops value="true"/>
    </processing>

    <time>
        <begin value="1083.0"/>
        <end value="1443.0"/>
    </time>

    <report>
        <verbose value="true"/>
        <ignore-errors value="true"/>
        <no-step-log value="true"/>
    </report>

</duarouterConfiguration>
-->

    <vType id="res_truck_int3_truck" vClass="truck"/>
    <trip id="res_truck_int30" type="res_truck_int3_truck" depart="1083.00" departLane="best" departSpeed="max" from="E22" to="E18.410"/>
    <trip id="res_truck_int31" type="res_truck_int3_truck" depart="1107.00" departLane="best" departSpeed="max" from="E18" to="E18.410"/>
    <trip id="res_truck_int32" type="res_truck_int3_truck" depart="1131.00" departLane="best" departSpeed="max" from="E30" to="E30.558"/>
    <trip id="res_truck_int33" type="res_truck_int3_truck" depart="1155.00" departLane="best" departSpeed="max" from="E31" to="E18.410"/>
    <trip id="res_truck_int34" type="res_truck_int3_truck" depart="1179.00" departLane="best" departSpeed="max" from="E18" to="E18.410"/>
    <trip id="res_truck_int36" type="res_truck_int3_truck" depart="1227.00" departLane="best" departSpeed="max" from="E18" to="E18.410"/>
    <trip id="res_truck_int37" type="res_truck_int3_truck" depart="1251.00" departLane="best" departSpeed="max" from="E22" to="E30.558"/>
    <trip id="res_truck_int310" type="res_truck_int3_truck" depart="1323.00" departLane="best" departSpeed="max" from="E30" to="E30.558"/>
    <trip id="res_truck_int311" type="res_truck_int3_truck" depart="1347.00" departLane="best" departSpeed="max" from="E18" to="E18.410"/>
    <trip id="res_truck_int313" type="res_truck_int3_truck" depart="1395.00" departLane="best" departSpeed="max" from="E18" to="E18.410"/>
    <trip id="res_truck_int314" type="res_truck_int3_truck" depart="1419.00" departLane="best" departSpeed="max" from="E31" to="E30.558"/>

<!-- generated on 2025-08-19 18:12:37.065618 by randomTrips.py UNKNOWN
<configuration>
    <net-file value="osm.net.xml.gz"/>
    <weights-prefix value="random_edge_priority_interval_4"/>
    <output-trip-file value="osm.res_truck.interval_4.trips.xml"/>
    <route-file value="osm.res_truck.interval_4.rou.xml"/>
    <prefix value="res_truck_int4"/>
    <trip-attributes value="departLane=&quot;best&quot;"/>
    <fringe-start-attributes value="departSpeed=&quot;max&quot;"/>
    <vehicle-class value="truck"/>
    <vclass value="truck"/>
    <remove-loops value="True"/>
    <validate value="True"/>
    <verbose value="True"/>
    <begin value="1444.0"/>
    <end value="1804.0"/>
    <insertion-rate value="150.0"/>
</configuration>
-->

<!-- generated on 2025-08-19 18:12:36 by Eclipse SUMO duarouter Version 1.22.0
<duarouterConfiguration xmlns:xsi="http://www.w3.org/2001/XMLSchema-instance" xsi:noNamespaceSchemaLocation="http://sumo.dlr.de/xsd/duarouterConfiguration.xsd">

    <input>
        <net-file value="osm.net.xml.gz"/>
        <route-files value="osm.res_truck.interval_4.trips.xml"/>
    </input>

    <output>
        <output-file value="osm.res_truck.interval_4.trips.xml.tmp"/>
        <alternatives-output value="NUL"/>
        <write-trips value="true"/>
    </output>

    <processing>
        <remove-loops value="true"/>
    </processing>

    <time>
        <begin value="1444.0"/>
        <end value="1804.0"/>
    </time>

    <report>
        <verbose value="true"/>
        <ignore-errors value="true"/>
        <no-step-log value="true"/>
    </report>

</duarouterConfiguration>
-->

    <vType id="res_truck_int4_truck" vClass="truck"/>
    <trip id="res_truck_int41" type="res_truck_int4_truck" depart="1468.00" departLane="best" departSpeed="max" from="E22" to="E18.410"/>
    <trip id="res_truck_int42" type="res_truck_int4_truck" depart="1492.00" departLane="best" departSpeed="max" from="E31" to="E30.558"/>
    <trip id="res_truck_int43" type="res_truck_int4_truck" depart="1516.00" departLane="best" departSpeed="max" from="E31" to="E18.410"/>
    <trip id="res_truck_int45" type="res_truck_int4_truck" depart="1564.00" departLane="best" departSpeed="max" from="E22" to="E30.558"/>
    <trip id="res_truck_int46" type="res_truck_int4_truck" depart="1588.00" departLane="best" departSpeed="max" from="E18" to="E18.410"/>
    <trip id="res_truck_int47" type="res_truck_int4_truck" depart="1612.00" departLane="best" departSpeed="max" from="E31" to="E30.558"/>
    <trip id="res_truck_int48" type="res_truck_int4_truck" depart="1636.00" departLane="best" departSpeed="max" from="E22" to="E30.558"/>
    <trip id="res_truck_int49" type="res_truck_int4_truck" depart="1660.00" departLane="best" departSpeed="max" from="E31" to="E18.410"/>
    <trip id="res_truck_int410" type="res_truck_int4_truck" depart="1684.00" departLane="best" departSpeed="max" from="E31" to="E30.558"/>
    <trip id="res_truck_int411" type="res_truck_int4_truck" depart="1708.00" departLane="best" departSpeed="max" from="E22" to="E18.410"/>
    <trip id="res_truck_int413" type="res_truck_int4_truck" depart="1756.00" departLane="best" departSpeed="max" from="E18" to="E18.410"/>
    <trip id="res_truck_int414" type="res_truck_int4_truck" depart="1780.00" departLane="best" departSpeed="max" from="E31" to="E30.558"/>

<!-- generated on 2025-08-19 18:12:37.794754 by randomTrips.py UNKNOWN
<configuration>
    <net-file value="osm.net.xml.gz"/>
    <weights-prefix value="random_edge_priority_interval_5"/>
    <output-trip-file value="osm.res_truck.interval_5.trips.xml"/>
    <route-file value="osm.res_truck.interval_5.rou.xml"/>
    <prefix value="res_truck_int5"/>
    <trip-attributes value="departLane=&quot;best&quot;"/>
    <fringe-start-attributes value="departSpeed=&quot;max&quot;"/>
    <vehicle-class value="truck"/>
    <vclass value="truck"/>
    <remove-loops value="True"/>
    <validate value="True"/>
    <verbose value="True"/>
    <begin value="1805.0"/>
    <end value="2165.0"/>
    <insertion-rate value="150.0"/>
</configuration>
-->

<!-- generated on 2025-08-19 18:12:37 by Eclipse SUMO duarouter Version 1.22.0
<duarouterConfiguration xmlns:xsi="http://www.w3.org/2001/XMLSchema-instance" xsi:noNamespaceSchemaLocation="http://sumo.dlr.de/xsd/duarouterConfiguration.xsd">

    <input>
        <net-file value="osm.net.xml.gz"/>
        <route-files value="osm.res_truck.interval_5.trips.xml"/>
    </input>

    <output>
        <output-file value="osm.res_truck.interval_5.trips.xml.tmp"/>
        <alternatives-output value="NUL"/>
        <write-trips value="true"/>
    </output>

    <processing>
        <remove-loops value="true"/>
    </processing>

    <time>
        <begin value="1805.0"/>
        <end value="2165.0"/>
    </time>

    <report>
        <verbose value="true"/>
        <ignore-errors value="true"/>
        <no-step-log value="true"/>
    </report>

</duarouterConfiguration>
-->

    <vType id="res_truck_int5_truck" vClass="truck"/>
    <trip id="res_truck_int51" type="res_truck_int5_truck" depart="1829.00" departLane="best" departSpeed="max" from="E18" to="E18.410"/>
    <trip id="res_truck_int52" type="res_truck_int5_truck" depart="1853.00" departLane="best" departSpeed="max" from="E30" to="E30.558"/>
    <trip id="res_truck_int54" type="res_truck_int5_truck" depart="1901.00" departLane="best" departSpeed="max" from="E22" to="E18.410"/>
    <trip id="res_truck_int56" type="res_truck_int5_truck" depart="1949.00" departLane="best" departSpeed="max" from="E18" to="E18.410"/>
    <trip id="res_truck_int57" type="res_truck_int5_truck" depart="1973.00" departLane="best" departSpeed="max" from="E30" to="E30.558"/>
    <trip id="res_truck_int510" type="res_truck_int5_truck" depart="2045.00" departLane="best" departSpeed="max" from="E30" to="E30.558"/>
    <trip id="res_truck_int511" type="res_truck_int5_truck" depart="2069.00" departLane="best" departSpeed="max" from="E22" to="E18.410"/>
    <trip id="res_truck_int512" type="res_truck_int5_truck" depart="2093.00" departLane="best" departSpeed="max" from="E30" to="E22.488"/>
    <trip id="res_truck_int513" type="res_truck_int5_truck" depart="2117.00" departLane="best" departSpeed="max" from="E18" to="E18.410"/>
    <trip id="res_truck_int514" type="res_truck_int5_truck" depart="2141.00" departLane="best" departSpeed="max" from="E30" to="E30.558"/>

<!-- generated on 2025-08-19 18:12:38.513979 by randomTrips.py UNKNOWN
<configuration>
    <net-file value="osm.net.xml.gz"/>
    <weights-prefix value="random_edge_priority_interval_6"/>
    <output-trip-file value="osm.res_truck.interval_6.trips.xml"/>
    <route-file value="osm.res_truck.interval_6.rou.xml"/>
    <prefix value="res_truck_int6"/>
    <trip-attributes value="departLane=&quot;best&quot;"/>
    <fringe-start-attributes value="departSpeed=&quot;max&quot;"/>
    <vehicle-class value="truck"/>
    <vclass value="truck"/>
    <remove-loops value="True"/>
    <validate value="True"/>
    <verbose value="True"/>
    <begin value="2166.0"/>
    <end value="2526.0"/>
    <insertion-rate value="150.0"/>
</configuration>
-->

<!-- generated on 2025-08-19 18:12:38 by Eclipse SUMO duarouter Version 1.22.0
<duarouterConfiguration xmlns:xsi="http://www.w3.org/2001/XMLSchema-instance" xsi:noNamespaceSchemaLocation="http://sumo.dlr.de/xsd/duarouterConfiguration.xsd">

    <input>
        <net-file value="osm.net.xml.gz"/>
        <route-files value="osm.res_truck.interval_6.trips.xml"/>
    </input>

    <output>
        <output-file value="osm.res_truck.interval_6.trips.xml.tmp"/>
        <alternatives-output value="NUL"/>
        <write-trips value="true"/>
    </output>

    <processing>
        <remove-loops value="true"/>
    </processing>

    <time>
        <begin value="2166.0"/>
        <end value="2526.0"/>
    </time>

    <report>
        <verbose value="true"/>
        <ignore-errors value="true"/>
        <no-step-log value="true"/>
    </report>

</duarouterConfiguration>
-->

    <vType id="res_truck_int6_truck" vClass="truck"/>
    <trip id="res_truck_int61" type="res_truck_int6_truck" depart="2190.00" departLane="best" departSpeed="max" from="E22" to="E18.410"/>
    <trip id="res_truck_int62" type="res_truck_int6_truck" depart="2214.00" departLane="best" departSpeed="max" from="E31" to="E30.558"/>
    <trip id="res_truck_int63" type="res_truck_int6_truck" depart="2238.00" departLane="best" departSpeed="max" from="E31" to="E18.410"/>
    <trip id="res_truck_int64" type="res_truck_int6_truck" depart="2262.00" departLane="best" departSpeed="max" from="E22" to="E18.410"/>
    <trip id="res_truck_int65" type="res_truck_int6_truck" depart="2286.00" departLane="best" departSpeed="max" from="E22" to="E30.558"/>
    <trip id="res_truck_int66" type="res_truck_int6_truck" depart="2310.00" departLane="best" departSpeed="max" from="E22" to="E18.410"/>
    <trip id="res_truck_int67" type="res_truck_int6_truck" depart="2334.00" departLane="best" departSpeed="max" from="E30" to="E30.558"/>
    <trip id="res_truck_int68" type="res_truck_int6_truck" depart="2358.00" departLane="best" departSpeed="max" from="E22" to="E30.558"/>
    <trip id="res_truck_int69" type="res_truck_int6_truck" depart="2382.00" departLane="best" departSpeed="max" from="E31" to="E18.410"/>
    <trip id="res_truck_int610" type="res_truck_int6_truck" depart="2406.00" departLane="best" departSpeed="max" from="E31" to="E30.558"/>
    <trip id="res_truck_int611" type="res_truck_int6_truck" depart="2430.00" departLane="best" departSpeed="max" from="E22" to="E18.410"/>
    <trip id="res_truck_int613" type="res_truck_int6_truck" depart="2478.00" departLane="best" departSpeed="max" from="E22" to="E18.410"/>
    <trip id="res_truck_int614" type="res_truck_int6_truck" depart="2502.00" departLane="best" departSpeed="max" from="E31" to="E30.558"/>

<!-- generated on 2025-08-19 18:12:39.243796 by randomTrips.py UNKNOWN
<configuration>
    <net-file value="osm.net.xml.gz"/>
    <weights-prefix value="random_edge_priority_interval_7"/>
    <output-trip-file value="osm.res_truck.interval_7.trips.xml"/>
    <route-file value="osm.res_truck.interval_7.rou.xml"/>
    <prefix value="res_truck_int7"/>
    <trip-attributes value="departLane=&quot;best&quot;"/>
    <fringe-start-attributes value="departSpeed=&quot;max&quot;"/>
    <vehicle-class value="truck"/>
    <vclass value="truck"/>
    <remove-loops value="True"/>
    <validate value="True"/>
    <verbose value="True"/>
    <begin value="2527.0"/>
    <end value="2887.0"/>
    <insertion-rate value="150.0"/>
</configuration>
-->

<!-- generated on 2025-08-19 18:12:39 by Eclipse SUMO duarouter Version 1.22.0
<duarouterConfiguration xmlns:xsi="http://www.w3.org/2001/XMLSchema-instance" xsi:noNamespaceSchemaLocation="http://sumo.dlr.de/xsd/duarouterConfiguration.xsd">

    <input>
        <net-file value="osm.net.xml.gz"/>
        <route-files value="osm.res_truck.interval_7.trips.xml"/>
    </input>

    <output>
        <output-file value="osm.res_truck.interval_7.trips.xml.tmp"/>
        <alternatives-output value="NUL"/>
        <write-trips value="true"/>
    </output>

    <processing>
        <remove-loops value="true"/>
    </processing>

    <time>
        <begin value="2527.0"/>
        <end value="2887.0"/>
    </time>

    <report>
        <verbose value="true"/>
        <ignore-errors value="true"/>
        <no-step-log value="true"/>
    </report>

</duarouterConfiguration>
-->

    <vType id="res_truck_int7_truck" vClass="truck"/>
    <trip id="res_truck_int70" type="res_truck_int7_truck" depart="2527.00" departLane="best" departSpeed="max" from="E22" to="E18.410"/>
    <trip id="res_truck_int71" type="res_truck_int7_truck" depart="2551.00" departLane="best" departSpeed="max" from="E18" to="E18.410"/>
    <trip id="res_truck_int72" type="res_truck_int7_truck" depart="2575.00" departLane="best" departSpeed="max" from="E22" to="E30.558"/>
    <trip id="res_truck_int73" type="res_truck_int7_truck" depart="2599.00" departLane="best" departSpeed="max" from="E22" to="E18.410"/>
    <trip id="res_truck_int74" type="res_truck_int7_truck" depart="2623.00" departLane="best" departSpeed="max" from="E18" to="E18.410"/>
    <trip id="res_truck_int76" type="res_truck_int7_truck" depart="2671.00" departLane="best" departSpeed="max" from="E18" to="E18.410"/>
    <trip id="res_truck_int77" type="res_truck_int7_truck" depart="2695.00" departLane="best" departSpeed="max" from="E22" to="E30.558"/>
    <trip id="res_truck_int79" type="res_truck_int7_truck" depart="2743.00" departLane="best" departSpeed="max" from="E22" to="E18.410"/>
    <trip id="res_truck_int710" type="res_truck_int7_truck" depart="2767.00" departLane="best" departSpeed="max" from="E22" to="E30.558"/>
    <trip id="res_truck_int711" type="res_truck_int7_truck" depart="2791.00" departLane="best" departSpeed="max" from="E18" to="E18.410"/>
    <trip id="res_truck_int712" type="res_truck_int7_truck" depart="2815.00" departLane="best" departSpeed="max" from="E22" to="E22.488"/>
    <trip id="res_truck_int713" type="res_truck_int7_truck" depart="2839.00" departLane="best" departSpeed="max" from="E18" to="E18.410"/>
    <trip id="res_truck_int714" type="res_truck_int7_truck" depart="2863.00" departLane="best" departSpeed="max" from="E22" to="E30.558"/>

<!-- generated on 2025-08-19 18:12:39.960069 by randomTrips.py UNKNOWN
<configuration>
    <net-file value="osm.net.xml.gz"/>
    <weights-prefix value="random_edge_priority_interval_8"/>
    <output-trip-file value="osm.res_truck.interval_8.trips.xml"/>
    <route-file value="osm.res_truck.interval_8.rou.xml"/>
    <prefix value="res_truck_int8"/>
    <trip-attributes value="departLane=&quot;best&quot;"/>
    <fringe-start-attributes value="departSpeed=&quot;max&quot;"/>
    <vehicle-class value="truck"/>
    <vclass value="truck"/>
    <remove-loops value="True"/>
    <validate value="True"/>
    <verbose value="True"/>
    <begin value="2888.0"/>
    <end value="3248.0"/>
    <insertion-rate value="150.0"/>
</configuration>
-->

<!-- generated on 2025-08-19 18:12:39 by Eclipse SUMO duarouter Version 1.22.0
<duarouterConfiguration xmlns:xsi="http://www.w3.org/2001/XMLSchema-instance" xsi:noNamespaceSchemaLocation="http://sumo.dlr.de/xsd/duarouterConfiguration.xsd">

    <input>
        <net-file value="osm.net.xml.gz"/>
        <route-files value="osm.res_truck.interval_8.trips.xml"/>
    </input>

    <output>
        <output-file value="osm.res_truck.interval_8.trips.xml.tmp"/>
        <alternatives-output value="NUL"/>
        <write-trips value="true"/>
    </output>

    <processing>
        <remove-loops value="true"/>
    </processing>

    <time>
        <begin value="2888.0"/>
        <end value="3248.0"/>
    </time>

    <report>
        <verbose value="true"/>
        <ignore-errors value="true"/>
        <no-step-log value="true"/>
    </report>

</duarouterConfiguration>
-->

    <vType id="res_truck_int8_truck" vClass="truck"/>
    <trip id="res_truck_int80" type="res_truck_int8_truck" depart="2888.00" departLane="best" departSpeed="max" from="E31" to="E18.410"/>
    <trip id="res_truck_int81" type="res_truck_int8_truck" depart="2912.00" departLane="best" departSpeed="max" from="E18" to="E18.410"/>
    <trip id="res_truck_int82" type="res_truck_int8_truck" depart="2936.00" departLane="best" departSpeed="max" from="E31" to="E30.558"/>
    <trip id="res_truck_int83" type="res_truck_int8_truck" depart="2960.00" departLane="best" departSpeed="max" from="E31" to="E18.410"/>