<?xml version="1.0" encoding="UTF-8"?>

<!-- generated on 2025-07-30 17:24:48.568661 by randomTrips.py v1_23_1+0000-676720d13f6
<configuration>
    <net-file value="osm.net.xml.gz"/>
    <weights-prefix value="random_edge_priority_interval_0"/>
    <output-trip-file value="osm.res_motorcycle.interval_0.trips.xml"/>
    <prefix value="res_motorcycle_int0"/>
    <trip-attributes value="departLane='best'"/>
    <fringe-start-attributes value="departSpeed='max'"/>
    <vehicle-class value="motorcycle"/>
    <vclass value="motorcycle"/>
    <remove-loops value="True"/>
    <validate value="True"/>
    <end value="360.0"/>
    <insertion-rate value="1500.0"/>
</configuration>
-->

<!-- generated on 2025-07-30 17:24:48 by Eclipse SUMO duarouter Version 1.23.1
<duarouterConfiguration xmlns:xsi="http://www.w3.org/2001/XMLSchema-instance" xsi:noNamespaceSchemaLocation="http://sumo.dlr.de/xsd/duarouterConfiguration.xsd">

    <input>
        <net-file value="osm.net.xml.gz"/>
        <route-files value="osm.res_motorcycle.interval_0.trips.xml"/>
    </input>

    <output>
        <output-file value="osm.res_motorcycle.interval_0.trips.xml.tmp"/>
        <alternatives-output value="NUL"/>
        <write-trips value="true"/>
    </output>

    <processing>
        <remove-loops value="true"/>
    </processing>

    <time>
        <begin value="0.0"/>
        <end value="360.0"/>
    </time>

    <report>
        <no-warnings value="true"/>
        <ignore-errors value="true"/>
        <no-step-log value="true"/>
    </report>

</duarouterConfiguration>
-->

<routes xmlns:xsi="http://www.w3.org/2001/XMLSchema-instance" xsi:noNamespaceSchemaLocation="http://sumo.dlr.de/xsd/routes_file.xsd">
    <vType id="res_motorcycle_int0_motorcycle" vClass="motorcycle"/>
    <trip id="res_motorcycle_int01" type="res_motorcycle_int0_motorcycle" depart="2.40" departLane="best" departSpeed="max" from="E22" to="E18.410"/>
    <trip id="res_motorcycle_int02" type="res_motorcycle_int0_motorcycle" depart="4.80" departLane="best" departSpeed="max" from="E30" to="E30.558"/>
    <trip id="res_motorcycle_int03" type="res_motorcycle_int0_motorcycle" depart="7.20" departLane="best" departSpeed="max" from="E31" to="E18.410"/>
    <trip id="res_motorcycle_int04" type="res_motorcycle_int0_motorcycle" depart="9.60" departLane="best" departSpeed="max" from="E22" to="E18.410"/>
    <trip id="res_motorcycle_int06" type="res_motorcycle_int0_motorcycle" depart="14.40" departLane="best" departSpeed="max" from="E18" to="E18.410"/>
    <trip id="res_motorcycle_int07" type="res_motorcycle_int0_motorcycle" depart="16.80" departLane="best" departSpeed="max" from="E30" to="E30.558"/>
    <trip id="res_motorcycle_int09" type="res_motorcycle_int0_motorcycle" depart="21.60" departLane="best" departSpeed="max" from="E31" to="E18.410"/>
    <trip id="res_motorcycle_int010" type="res_motorcycle_int0_motorcycle" depart="24.00" departLane="best" departSpeed="max" from="E31" to="E30.558"/>
    <trip id="res_motorcycle_int011" type="res_motorcycle_int0_motorcycle" depart="26.40" departLane="best" departSpeed="max" from="E22" to="E18.410"/>
    <trip id="res_motorcycle_int013" type="res_motorcycle_int0_motorcycle" depart="31.20" departLane="best" departSpeed="max" from="E18" to="E18.410"/>
    <trip id="res_motorcycle_int014" type="res_motorcycle_int0_motorcycle" depart="33.60" departLane="best" departSpeed="max" from="E31" to="E30.558"/>
    <trip id="res_motorcycle_int015" type="res_motorcycle_int0_motorcycle" depart="36.00" departLane="best" departSpeed="max" from="E31" to="E30.558"/>
    <trip id="res_motorcycle_int016" type="res_motorcycle_int0_motorcycle" depart="38.40" departLane="best" departSpeed="max" from="E30" to="E31.622"/>
    <trip id="res_motorcycle_int017" type="res_motorcycle_int0_motorcycle" depart="40.80" departLane="best" departSpeed="max" from="E22" to="E30.558"/>
    <trip id="res_motorcycle_int018" type="res_motorcycle_int0_motorcycle" depart="43.20" departLane="best" departSpeed="max" from="E31" to="E30.558"/>
    <trip id="res_motorcycle_int019" type="res_motorcycle_int0_motorcycle" depart="45.60" departLane="best" departSpeed="max" from="E31" to="E30.558"/>
    <trip id="res_motorcycle_int021" type="res_motorcycle_int0_motorcycle" depart="50.40" departLane="best" departSpeed="max" from="E18" to="E22.488"/>
    <trip id="res_motorcycle_int022" type="res_motorcycle_int0_motorcycle" depart="52.80" departLane="best" departSpeed="max" from="E18" to="E18.410"/>
    <trip id="res_motorcycle_int023" type="res_motorcycle_int0_motorcycle" depart="55.20" departLane="best" departSpeed="max" from="E18" to="E22.488"/>
    <trip id="res_motorcycle_int024" type="res_motorcycle_int0_motorcycle" depart="57.60" departLane="best" departSpeed="max" from="E30" to="E22.488"/>
    <trip id="res_motorcycle_int025" type="res_motorcycle_int0_motorcycle" depart="60.00" departLane="best" departSpeed="max" from="E22" to="E18.410"/>
    <trip id="res_motorcycle_int027" type="res_motorcycle_int0_motorcycle" depart="64.80" departLane="best" departSpeed="max" from="E30" to="E30.558"/>
    <trip id="res_motorcycle_int029" type="res_motorcycle_int0_motorcycle" depart="69.60" departLane="best" departSpeed="max" from="E18" to="E22.488"/>
    <trip id="res_motorcycle_int030" type="res_motorcycle_int0_motorcycle" depart="72.00" departLane="best" departSpeed="max" from="E31" to="E30.558"/>
    <trip id="res_motorcycle_int031" type="res_motorcycle_int0_motorcycle" depart="74.40" departLane="best" departSpeed="max" from="E30" to="E30.558"/>
    <trip id="res_motorcycle_int032" type="res_motorcycle_int0_motorcycle" depart="76.80" departLane="best" departSpeed="max" from="E31" to="E31.622"/>
    <trip id="res_motorcycle_int033" type="res_motorcycle_int0_motorcycle" depart="79.20" departLane="best" departSpeed="max" from="E18" to="E18.410"/>
    <trip id="res_motorcycle_int034" type="res_motorcycle_int0_motorcycle" depart="81.60" departLane="best" departSpeed="max" from="E22" to="E22.488"/>
    <trip id="res_motorcycle_int035" type="res_motorcycle_int0_motorcycle" depart="84.00" departLane="best" departSpeed="max" from="E18" to="E31.622"/>
    <trip id="res_motorcycle_int037" type="res_motorcycle_int0_motorcycle" depart="88.80" departLane="best" departSpeed="max" from="E30" to="E22.488"/>
    <trip id="res_motorcycle_int039" type="res_motorcycle_int0_motorcycle" depart="93.60" departLane="best" departSpeed="max" from="E22" to="E18.410"/>
    <trip id="res_motorcycle_int040" type="res_motorcycle_int0_motorcycle" depart="96.00" departLane="best" departSpeed="max" from="E30" to="E22.488"/>
    <trip id="res_motorcycle_int041" type="res_motorcycle_int0_motorcycle" depart="98.40" departLane="best" departSpeed="max" from="E30" to="E31.622"/>
    <trip id="res_motorcycle_int042" type="res_motorcycle_int0_motorcycle" depart="100.80" departLane="best" departSpeed="max" from="E22" to="E18.410"/>
    <trip id="res_motorcycle_int043" type="res_motorcycle_int0_motorcycle" depart="103.20" departLane="best" departSpeed="max" from="E31" to="E30.558"/>
    <trip id="res_motorcycle_int044" type="res_motorcycle_int0_motorcycle" depart="105.60" departLane="best" departSpeed="max" from="E18" to="E18.410"/>
    <trip id="res_motorcycle_int047" type="res_motorcycle_int0_motorcycle" depart="112.80" departLane="best" departSpeed="max" from="E18" to="E22.488"/>
    <trip id="res_motorcycle_int048" type="res_motorcycle_int0_motorcycle" depart="115.20" departLane="best" departSpeed="max" from="E31" to="E30.558"/>
    <trip id="res_motorcycle_int049" type="res_motorcycle_int0_motorcycle" depart="117.60" departLane="best" departSpeed="max" from="E31" to="E31.622"/>
    <trip id="res_motorcycle_int051" type="res_motorcycle_int0_motorcycle" depart="122.40" departLane="best" departSpeed="max" from="E30" to="E30.558"/>
    <trip id="res_motorcycle_int052" type="res_motorcycle_int0_motorcycle" depart="124.80" departLane="best" departSpeed="max" from="E22" to="E30.558"/>
    <trip id="res_motorcycle_int053" type="res_motorcycle_int0_motorcycle" depart="127.20" departLane="best" departSpeed="max" from="E18" to="E22.488"/>
    <trip id="res_motorcycle_int057" type="res_motorcycle_int0_motorcycle" depart="136.80" departLane="best" departSpeed="max" from="E31" to="E31.622"/>
    <trip id="res_motorcycle_int058" type="res_motorcycle_int0_motorcycle" depart="139.20" departLane="best" departSpeed="max" from="E22" to="E30.558"/>
    <trip id="res_motorcycle_int060" type="res_motorcycle_int0_motorcycle" depart="144.00" departLane="best" departSpeed="max" from="E31" to="E30.558"/>
    <trip id="res_motorcycle_int061" type="res_motorcycle_int0_motorcycle" depart="146.40" departLane="best" departSpeed="max" from="E31" to="E30.558"/>
    <trip id="res_motorcycle_int062" type="res_motorcycle_int0_motorcycle" depart="148.80" departLane="best" departSpeed="max" from="E18" to="E22.488"/>
    <trip id="res_motorcycle_int063" type="res_motorcycle_int0_motorcycle" depart="151.20" departLane="best" departSpeed="max" from="E18" to="E31.622"/>
    <trip id="res_motorcycle_int064" type="res_motorcycle_int0_motorcycle" depart="153.60" departLane="best" departSpeed="max" from="E31" to="E31.622"/>
    <trip id="res_motorcycle_int065" type="res_motorcycle_int0_motorcycle" depart="156.00" departLane="best" departSpeed="max" from="E22" to="E18.410"/>
    <trip id="res_motorcycle_int066" type="res_motorcycle_int0_motorcycle" depart="158.40" departLane="best" departSpeed="max" from="E31" to="E31.622"/>
    <trip id="res_motorcycle_int067" type="res_motorcycle_int0_motorcycle" depart="160.80" departLane="best" departSpeed="max" from="E18" to="E22.488"/>
    <trip id="res_motorcycle_int068" type="res_motorcycle_int0_motorcycle" depart="163.20" departLane="best" departSpeed="max" from="E18" to="E31.622"/>
    <trip id="res_motorcycle_int069" type="res_motorcycle_int0_motorcycle" depart="165.60" departLane="best" departSpeed="max" from="E31" to="E18.410"/>
    <trip id="res_motorcycle_int070" type="res_motorcycle_int0_motorcycle" depart="168.00" departLane="best" departSpeed="max" from="E22" to="E30.558"/>
    <trip id="res_motorcycle_int072" type="res_motorcycle_int0_motorcycle" depart="172.80" departLane="best" departSpeed="max" from="E22" to="E18.410"/>
    <trip id="res_motorcycle_int073" type="res_motorcycle_int0_motorcycle" depart="175.20" departLane="best" departSpeed="max" from="E30" to="E30.558"/>
    <trip id="res_motorcycle_int074" type="res_motorcycle_int0_motorcycle" depart="177.60" departLane="best" departSpeed="max" from="E18" to="E22.488"/>
    <trip id="res_motorcycle_int075" type="res_motorcycle_int0_motorcycle" depart="180.00" departLane="best" departSpeed="max" from="E31" to="E30.558"/>
    <trip id="res_motorcycle_int076" type="res_motorcycle_int0_motorcycle" depart="182.40" departLane="best" departSpeed="max" from="E22" to="E30.558"/>
    <trip id="res_motorcycle_int077" type="res_motorcycle_int0_motorcycle" depart="184.80" departLane="best" departSpeed="max" from="E18" to="E18.410"/>
    <trip id="res_motorcycle_int078" type="res_motorcycle_int0_motorcycle" depart="187.20" departLane="best" departSpeed="max" from="E22" to="E30.558"/>
    <trip id="res_motorcycle_int079" type="res_motorcycle_int0_motorcycle" depart="189.60" departLane="best" departSpeed="max" from="E18" to="E18.410"/>
    <trip id="res_motorcycle_int081" type="res_motorcycle_int0_motorcycle" depart="194.40" departLane="best" departSpeed="max" from="E18" to="E31.622"/>
    <trip id="res_motorcycle_int082" type="res_motorcycle_int0_motorcycle" depart="196.80" departLane="best" departSpeed="max" from="E31" to="E18.410"/>
    <trip id="res_motorcycle_int084" type="res_motorcycle_int0_motorcycle" depart="201.60" departLane="best" departSpeed="max" from="E18" to="E18.410"/>
    <trip id="res_motorcycle_int085" type="res_motorcycle_int0_motorcycle" depart="204.00" departLane="best" departSpeed="max" from="E31" to="E30.558"/>
    <trip id="res_motorcycle_int087" type="res_motorcycle_int0_motorcycle" depart="208.80" departLane="best" departSpeed="max" from="E31" to="E18.410"/>
    <trip id="res_motorcycle_int088" type="res_motorcycle_int0_motorcycle" depart="211.20" departLane="best" departSpeed="max" from="E18" to="E22.488"/>
    <trip id="res_motorcycle_int089" type="res_motorcycle_int0_motorcycle" depart="213.60" departLane="best" departSpeed="max" from="E22" to="E22.488"/>
    <trip id="res_motorcycle_int090" type="res_motorcycle_int0_motorcycle" depart="216.00" departLane="best" departSpeed="max" from="E30" to="E30.558"/>
    <trip id="res_motorcycle_int091" type="res_motorcycle_int0_motorcycle" depart="218.40" departLane="best" departSpeed="max" from="E31" to="E18.410"/>
    <trip id="res_motorcycle_int092" type="res_motorcycle_int0_motorcycle" depart="220.80" departLane="best" departSpeed="max" from="E22" to="E22.488"/>
    <trip id="res_motorcycle_int093" type="res_motorcycle_int0_motorcycle" depart="223.20" departLane="best" departSpeed="max" from="E31" to="E18.410"/>
    <trip id="res_motorcycle_int094" type="res_motorcycle_int0_motorcycle" depart="225.60" departLane="best" departSpeed="max" from="E18" to="E22.488"/>
    <trip id="res_motorcycle_int095" type="res_motorcycle_int0_motorcycle" depart="228.00" departLane="best" departSpeed="max" from="E22" to="E22.488"/>
    <trip id="res_motorcycle_int096" type="res_motorcycle_int0_motorcycle" depart="230.40" departLane="best" departSpeed="max" from="E18" to="E31.622"/>
    <trip id="res_motorcycle_int099" type="res_motorcycle_int0_motorcycle" depart="237.60" departLane="best" departSpeed="max" from="E31" to="E31.622"/>
    <trip id="res_motorcycle_int0100" type="res_motorcycle_int0_motorcycle" depart="240.00" departLane="best" departSpeed="max" from="E31" to="E31.622"/>
    <trip id="res_motorcycle_int0101" type="res_motorcycle_int0_motorcycle" depart="242.40" departLane="best" departSpeed="max" from="E31" to="E18.410"/>
    <trip id="res_motorcycle_int0102" type="res_motorcycle_int0_motorcycle" depart="244.80" departLane="best" departSpeed="max" from="E22" to="E18.410"/>
    <trip id="res_motorcycle_int0103" type="res_motorcycle_int0_motorcycle" depart="247.20" departLane="best" departSpeed="max" from="E22" to="E18.410"/>
    <trip id="res_motorcycle_int0106" type="res_motorcycle_int0_motorcycle" depart="254.40" departLane="best" departSpeed="max" from="E22" to="E22.488"/>
    <trip id="res_motorcycle_int0107" type="res_motorcycle_int0_motorcycle" depart="256.80" departLane="best" departSpeed="max" from="E31" to="E31.622"/>
    <trip id="res_motorcycle_int0108" type="res_motorcycle_int0_motorcycle" depart="259.20" departLane="best" departSpeed="max" from="E30" to="E30.558"/>
    <trip id="res_motorcycle_int0109" type="res_motorcycle_int0_motorcycle" depart="261.60" departLane="best" departSpeed="max" from="E18" to="E22.488"/>
    <trip id="res_motorcycle_int0110" type="res_motorcycle_int0_motorcycle" depart="264.00" departLane="best" departSpeed="max" from="E31" to="E30.558"/>
    <trip id="res_motorcycle_int0111" type="res_motorcycle_int0_motorcycle" depart="266.40" departLane="best" departSpeed="max" from="E30" to="E30.558"/>
    <trip id="res_motorcycle_int0113" type="res_motorcycle_int0_motorcycle" depart="271.20" departLane="best" departSpeed="max" from="E30" to="E31.622"/>
    <trip id="res_motorcycle_int0114" type="res_motorcycle_int0_motorcycle" depart="273.60" departLane="best" departSpeed="max" from="E18" to="E31.622"/>
    <trip id="res_motorcycle_int0115" type="res_motorcycle_int0_motorcycle" depart="276.00" departLane="best" departSpeed="max" from="E18" to="E18.410"/>
    <trip id="res_motorcycle_int0116" type="res_motorcycle_int0_motorcycle" depart="278.40" departLane="best" departSpeed="max" from="E30" to="E30.558"/>
    <trip id="res_motorcycle_int0117" type="res_motorcycle_int0_motorcycle" depart="280.80" departLane="best" departSpeed="max" from="E18" to="E18.410"/>
    <trip id="res_motorcycle_int0118" type="res_motorcycle_int0_motorcycle" depart="283.20" departLane="best" departSpeed="max" from="E31" to="E18.410"/>
    <trip id="res_motorcycle_int0119" type="res_motorcycle_int0_motorcycle" depart="285.60" departLane="best" departSpeed="max" from="E30" to="E30.558"/>
    <trip id="res_motorcycle_int0120" type="res_motorcycle_int0_motorcycle" depart="288.00" departLane="best" departSpeed="max" from="E22" to="E30.558"/>
    <trip id="res_motorcycle_int0121" type="res_motorcycle_int0_motorcycle" depart="290.40" departLane="best" departSpeed="max" from="E30" to="E31.622"/>
    <trip id="res_motorcycle_int0123" type="res_motorcycle_int0_motorcycle" depart="295.20" departLane="best" departSpeed="max" from="E18" to="E22.488"/>
    <trip id="res_motorcycle_int0124" type="res_motorcycle_int0_motorcycle" depart="297.60" departLane="best" departSpeed="max" from="E30" to="E22.488"/>
    <trip id="res_motorcycle_int0126" type="res_motorcycle_int0_motorcycle" depart="302.40" departLane="best" departSpeed="max" from="E18" to="E22.488"/>
    <trip id="res_motorcycle_int0127" type="res_motorcycle_int0_motorcycle" depart="304.80" departLane="best" departSpeed="max" from="E31" to="E31.622"/>
    <trip id="res_motorcycle_int0128" type="res_motorcycle_int0_motorcycle" depart="307.20" departLane="best" departSpeed="max" from="E18" to="E18.410"/>
    <trip id="res_motorcycle_int0130" type="res_motorcycle_int0_motorcycle" depart="312.00" departLane="best" departSpeed="max" from="E31" to="E31.622"/>
    <trip id="res_motorcycle_int0131" type="res_motorcycle_int0_motorcycle" depart="314.40" departLane="best" departSpeed="max" from="E22" to="E18.410"/>
    <trip id="res_motorcycle_int0132" type="res_motorcycle_int0_motorcycle" depart="316.80" departLane="best" departSpeed="max" from="E31" to="E30.558"/>
    <trip id="res_motorcycle_int0133" type="res_motorcycle_int0_motorcycle" depart="319.20" departLane="best" departSpeed="max" from="E30" to="E31.622"/>
    <trip id="res_motorcycle_int0136" type="res_motorcycle_int0_motorcycle" depart="326.40" departLane="best" departSpeed="max" from="E30" to="E31.622"/>
    <trip id="res_motorcycle_int0137" type="res_motorcycle_int0_motorcycle" depart="328.80" departLane="best" departSpeed="max" from="E18" to="E18.410"/>
    <trip id="res_motorcycle_int0139" type="res_motorcycle_int0_motorcycle" depart="333.60" departLane="best" departSpeed="max" from="E22" to="E30.558"/>
    <trip id="res_motorcycle_int0141" type="res_motorcycle_int0_motorcycle" depart="338.40" departLane="best" departSpeed="max" from="E30" to="E22.488"/>
    <trip id="res_motorcycle_int0143" type="res_motorcycle_int0_motorcycle" depart="343.20" departLane="best" departSpeed="max" from="E31" to="E18.410"/>
    <trip id="res_motorcycle_int0144" type="res_motorcycle_int0_motorcycle" depart="345.60" departLane="best" departSpeed="max" from="E22" to="E22.488"/>
    <trip id="res_motorcycle_int0145" type="res_motorcycle_int0_motorcycle" depart="348.00" departLane="best" departSpeed="max" from="E18" to="E31.622"/>
    <trip id="res_motorcycle_int0146" type="res_motorcycle_int0_motorcycle" depart="350.40" departLane="best" departSpeed="max" from="E30" to="E22.488"/>
    <trip id="res_motorcycle_int0147" type="res_motorcycle_int0_motorcycle" depart="352.80" departLane="best" departSpeed="max" from="E30" to="E30.558"/>
    <trip id="res_motorcycle_int0148" type="res_motorcycle_int0_motorcycle" depart="355.20" departLane="best" departSpeed="max" from="E22" to="E18.410"/>
    <trip id="res_motorcycle_int0149" type="res_motorcycle_int0_motorcycle" depart="357.60" departLane="best" departSpeed="max" from="E18" to="E31.622"/>
</routes>
