<?xml version="1.0" encoding="UTF-8"?>

<!-- generated on 2025-07-31 11:10:08.162746 by randomTrips.py v1_23_1+0000-676720d13f6
<configuration>
    <net-file value="osm.net.xml.gz"/>
    <weights-prefix value="random_edge_priority_interval_5"/>
    <output-trip-file value="osm.res_veh.interval_5.trips.xml"/>
    <prefix value="res_veh_int5"/>
    <trip-attributes value="departLane='best'"/>
    <fringe-start-attributes value="departSpeed='max'"/>
    <vehicle-class value="passenger"/>
    <remove-loops value="True"/>
    <validate value="True"/>
    <begin value="1805.0"/>
    <end value="2165.0"/>
    <insertion-rate value="370.0"/>
</configuration>
-->

<!-- generated on 2025-07-31 11:10:08 by Eclipse SUMO duarouter Version 1.23.1
<duarouterConfiguration xmlns:xsi="http://www.w3.org/2001/XMLSchema-instance" xsi:noNamespaceSchemaLocation="http://sumo.dlr.de/xsd/duarouterConfiguration.xsd">

    <input>
        <net-file value="osm.net.xml.gz"/>
        <route-files value="osm.res_veh.interval_5.trips.xml"/>
    </input>

    <output>
        <output-file value="osm.res_veh.interval_5.trips.xml.tmp"/>
        <alternatives-output value="NUL"/>
        <write-trips value="true"/>
    </output>

    <processing>
        <remove-loops value="true"/>
    </processing>

    <time>
        <begin value="1805.0"/>
        <end value="2165.0"/>
    </time>

    <report>
        <no-warnings value="true"/>
        <ignore-errors value="true"/>
        <no-step-log value="true"/>
    </report>

</duarouterConfiguration>
-->

<routes xmlns:xsi="http://www.w3.org/2001/XMLSchema-instance" xsi:noNamespaceSchemaLocation="http://sumo.dlr.de/xsd/routes_file.xsd">
    <vType id="res_veh_int5_passenger" vClass="passenger"/>
    <trip id="res_veh_int51" type="res_veh_int5_passenger" depart="1814.73" departLane="best" departSpeed="max" from="E18" to="E18.410"/>
    <trip id="res_veh_int52" type="res_veh_int5_passenger" depart="1824.46" departLane="best" departSpeed="max" from="E30" to="E30.558"/>
    <trip id="res_veh_int53" type="res_veh_int5_passenger" depart="1834.19" departLane="best" departSpeed="max" from="E31" to="E18.410"/>
    <trip id="res_veh_int54" type="res_veh_int5_passenger" depart="1843.92" departLane="best" departSpeed="max" from="E22" to="E18.410"/>
    <trip id="res_veh_int56" type="res_veh_int5_passenger" depart="1863.38" departLane="best" departSpeed="max" from="E18" to="E18.410"/>
    <trip id="res_veh_int57" type="res_veh_int5_passenger" depart="1873.11" departLane="best" departSpeed="max" from="E30" to="E30.558"/>
    <trip id="res_veh_int510" type="res_veh_int5_passenger" depart="1902.30" departLane="best" departSpeed="max" from="E30" to="E30.558"/>
    <trip id="res_veh_int511" type="res_veh_int5_passenger" depart="1912.03" departLane="best" departSpeed="max" from="E18" to="E18.410"/>
    <trip id="res_veh_int513" type="res_veh_int5_passenger" depart="1931.49" departLane="best" departSpeed="max" from="E18" to="E18.410"/>
    <trip id="res_veh_int514" type="res_veh_int5_passenger" depart="1941.22" departLane="best" departSpeed="max" from="E30" to="E30.558"/>
    <trip id="res_veh_int515" type="res_veh_int5_passenger" depart="1950.95" departLane="best" departSpeed="max" from="E30" to="E30.558"/>
    <trip id="res_veh_int518" type="res_veh_int5_passenger" depart="1980.14" departLane="best" departSpeed="max" from="E30" to="E30.558"/>
    <trip id="res_veh_int519" type="res_veh_int5_passenger" depart="1989.86" departLane="best" departSpeed="max" from="E30" to="E30.558"/>
    <trip id="res_veh_int521" type="res_veh_int5_passenger" depart="2009.32" departLane="best" departSpeed="max" from="E18" to="E22.488"/>
    <trip id="res_veh_int522" type="res_veh_int5_passenger" depart="2019.05" departLane="best" departSpeed="max" from="E18" to="E18.410"/>
    <trip id="res_veh_int523" type="res_veh_int5_passenger" depart="2028.78" departLane="best" departSpeed="max" from="E18" to="E22.488"/>
    <trip id="res_veh_int524" type="res_veh_int5_passenger" depart="2038.51" departLane="best" departSpeed="max" from="E30" to="E22.488"/>
    <trip id="res_veh_int525" type="res_veh_int5_passenger" depart="2048.24" departLane="best" departSpeed="max" from="E18" to="E18.410"/>
    <trip id="res_veh_int526" type="res_veh_int5_passenger" depart="2057.97" departLane="best" departSpeed="max" from="E18" to="E31.622"/>
    <trip id="res_veh_int527" type="res_veh_int5_passenger" depart="2067.70" departLane="best" departSpeed="max" from="E30" to="E30.558"/>
    <trip id="res_veh_int529" type="res_veh_int5_passenger" depart="2087.16" departLane="best" departSpeed="max" from="E18" to="E22.488"/>
    <trip id="res_veh_int530" type="res_veh_int5_passenger" depart="2096.89" departLane="best" departSpeed="max" from="E31" to="E30.558"/>
    <trip id="res_veh_int531" type="res_veh_int5_passenger" depart="2106.62" departLane="best" departSpeed="max" from="E30" to="E30.558"/>
    <trip id="res_veh_int532" type="res_veh_int5_passenger" depart="2116.35" departLane="best" departSpeed="max" from="E30" to="E31.622"/>
    <trip id="res_veh_int533" type="res_veh_int5_passenger" depart="2126.08" departLane="best" departSpeed="max" from="E18" to="E18.410"/>
    <trip id="res_veh_int534" type="res_veh_int5_passenger" depart="2135.81" departLane="best" departSpeed="max" from="E18" to="E22.488"/>
    <trip id="res_veh_int535" type="res_veh_int5_passenger" depart="2145.54" departLane="best" departSpeed="max" from="E18" to="E31.622"/>
    <trip id="res_veh_int536" type="res_veh_int5_passenger" depart="2155.27" departLane="best" departSpeed="max" from="E30" to="E22.488"/>
</routes>
