<?xml version="1.0" encoding="UTF-8"?>

<!-- generated on 2025-07-30 17:24:53.231726 by randomTrips.py v1_23_1+0000-676720d13f6
<configuration>
    <net-file value="osm.net.xml.gz"/>
    <weights-prefix value="random_edge_priority_interval_5"/>
    <output-trip-file value="osm.res_motorcycle.interval_5.trips.xml"/>
    <prefix value="res_motorcycle_int5"/>
    <trip-attributes value="departLane='best'"/>
    <fringe-start-attributes value="departSpeed='max'"/>
    <vehicle-class value="motorcycle"/>
    <vclass value="motorcycle"/>
    <remove-loops value="True"/>
    <validate value="True"/>
    <begin value="1805.0"/>
    <end value="2165.0"/>
    <insertion-rate value="6000.0"/>
</configuration>
-->

<!-- generated on 2025-07-30 17:24:53 by Eclipse SUMO duarouter Version 1.23.1
<duarouterConfiguration xmlns:xsi="http://www.w3.org/2001/XMLSchema-instance" xsi:noNamespaceSchemaLocation="http://sumo.dlr.de/xsd/duarouterConfiguration.xsd">

    <input>
        <net-file value="osm.net.xml.gz"/>
        <route-files value="osm.res_motorcycle.interval_5.trips.xml"/>
    </input>

    <output>
        <output-file value="osm.res_motorcycle.interval_5.trips.xml.tmp"/>
        <alternatives-output value="NUL"/>
        <write-trips value="true"/>
    </output>

    <processing>
        <remove-loops value="true"/>
    </processing>

    <time>
        <begin value="1805.0"/>
        <end value="2165.0"/>
    </time>

    <report>
        <no-warnings value="true"/>
        <ignore-errors value="true"/>
        <no-step-log value="true"/>
    </report>

</duarouterConfiguration>
-->

<routes xmlns:xsi="http://www.w3.org/2001/XMLSchema-instance" xsi:noNamespaceSchemaLocation="http://sumo.dlr.de/xsd/routes_file.xsd">
    <vType id="res_motorcycle_int5_motorcycle" vClass="motorcycle"/>
    <trip id="res_motorcycle_int51" type="res_motorcycle_int5_motorcycle" depart="1805.60" departLane="best" departSpeed="max" from="E22" to="E18.410"/>
    <trip id="res_motorcycle_int52" type="res_motorcycle_int5_motorcycle" depart="1806.20" departLane="best" departSpeed="max" from="E30" to="E30.558"/>
    <trip id="res_motorcycle_int53" type="res_motorcycle_int5_motorcycle" depart="1806.80" departLane="best" departSpeed="max" from="E31" to="E18.410"/>
    <trip id="res_motorcycle_int54" type="res_motorcycle_int5_motorcycle" depart="1807.40" departLane="best" departSpeed="max" from="E22" to="E18.410"/>
    <trip id="res_motorcycle_int56" type="res_motorcycle_int5_motorcycle" depart="1808.60" departLane="best" departSpeed="max" from="E18" to="E18.410"/>
    <trip id="res_motorcycle_int57" type="res_motorcycle_int5_motorcycle" depart="1809.20" departLane="best" departSpeed="max" from="E30" to="E30.558"/>
    <trip id="res_motorcycle_int59" type="res_motorcycle_int5_motorcycle" depart="1810.40" departLane="best" departSpeed="max" from="E31" to="E18.410"/>
    <trip id="res_motorcycle_int510" type="res_motorcycle_int5_motorcycle" depart="1811.00" departLane="best" departSpeed="max" from="E31" to="E30.558"/>
    <trip id="res_motorcycle_int511" type="res_motorcycle_int5_motorcycle" depart="1811.60" departLane="best" departSpeed="max" from="E22" to="E18.410"/>
    <trip id="res_motorcycle_int513" type="res_motorcycle_int5_motorcycle" depart="1812.80" departLane="best" departSpeed="max" from="E18" to="E18.410"/>
    <trip id="res_motorcycle_int514" type="res_motorcycle_int5_motorcycle" depart="1813.40" departLane="best" departSpeed="max" from="E31" to="E30.558"/>
    <trip id="res_motorcycle_int515" type="res_motorcycle_int5_motorcycle" depart="1814.00" departLane="best" departSpeed="max" from="E31" to="E30.558"/>
    <trip id="res_motorcycle_int516" type="res_motorcycle_int5_motorcycle" depart="1814.60" departLane="best" departSpeed="max" from="E30" to="E31.622"/>
    <trip id="res_motorcycle_int517" type="res_motorcycle_int5_motorcycle" depart="1815.20" departLane="best" departSpeed="max" from="E22" to="E30.558"/>
    <trip id="res_motorcycle_int518" type="res_motorcycle_int5_motorcycle" depart="1815.80" departLane="best" departSpeed="max" from="E31" to="E30.558"/>
    <trip id="res_motorcycle_int519" type="res_motorcycle_int5_motorcycle" depart="1816.40" departLane="best" departSpeed="max" from="E31" to="E30.558"/>
    <trip id="res_motorcycle_int521" type="res_motorcycle_int5_motorcycle" depart="1817.60" departLane="best" departSpeed="max" from="E18" to="E22.488"/>
    <trip id="res_motorcycle_int522" type="res_motorcycle_int5_motorcycle" depart="1818.20" departLane="best" departSpeed="max" from="E18" to="E18.410"/>
    <trip id="res_motorcycle_int523" type="res_motorcycle_int5_motorcycle" depart="1818.80" departLane="best" departSpeed="max" from="E18" to="E22.488"/>
    <trip id="res_motorcycle_int524" type="res_motorcycle_int5_motorcycle" depart="1819.40" departLane="best" departSpeed="max" from="E30" to="E22.488"/>
    <trip id="res_motorcycle_int525" type="res_motorcycle_int5_motorcycle" depart="1820.00" departLane="best" departSpeed="max" from="E22" to="E18.410"/>
    <trip id="res_motorcycle_int527" type="res_motorcycle_int5_motorcycle" depart="1821.20" departLane="best" departSpeed="max" from="E30" to="E30.558"/>
    <trip id="res_motorcycle_int529" type="res_motorcycle_int5_motorcycle" depart="1822.40" departLane="best" departSpeed="max" from="E18" to="E22.488"/>
    <trip id="res_motorcycle_int530" type="res_motorcycle_int5_motorcycle" depart="1823.00" departLane="best" departSpeed="max" from="E31" to="E30.558"/>
    <trip id="res_motorcycle_int531" type="res_motorcycle_int5_motorcycle" depart="1823.60" departLane="best" departSpeed="max" from="E30" to="E30.558"/>
    <trip id="res_motorcycle_int532" type="res_motorcycle_int5_motorcycle" depart="1824.20" departLane="best" departSpeed="max" from="E31" to="E31.622"/>
    <trip id="res_motorcycle_int533" type="res_motorcycle_int5_motorcycle" depart="1824.80" departLane="best" departSpeed="max" from="E18" to="E18.410"/>
    <trip id="res_motorcycle_int534" type="res_motorcycle_int5_motorcycle" depart="1825.40" departLane="best" departSpeed="max" from="E22" to="E22.488"/>
    <trip id="res_motorcycle_int535" type="res_motorcycle_int5_motorcycle" depart="1826.00" departLane="best" departSpeed="max" from="E18" to="E31.622"/>
    <trip id="res_motorcycle_int537" type="res_motorcycle_int5_motorcycle" depart="1827.20" departLane="best" departSpeed="max" from="E30" to="E22.488"/>
    <trip id="res_motorcycle_int539" type="res_motorcycle_int5_motorcycle" depart="1828.40" departLane="best" departSpeed="max" from="E22" to="E18.410"/>
    <trip id="res_motorcycle_int540" type="res_motorcycle_int5_motorcycle" depart="1829.00" departLane="best" departSpeed="max" from="E30" to="E22.488"/>
    <trip id="res_motorcycle_int541" type="res_motorcycle_int5_motorcycle" depart="1829.60" departLane="best" departSpeed="max" from="E30" to="E31.622"/>
    <trip id="res_motorcycle_int542" type="res_motorcycle_int5_motorcycle" depart="1830.20" departLane="best" departSpeed="max" from="E22" to="E18.410"/>
    <trip id="res_motorcycle_int543" type="res_motorcycle_int5_motorcycle" depart="1830.80" departLane="best" departSpeed="max" from="E31" to="E30.558"/>
    <trip id="res_motorcycle_int544" type="res_motorcycle_int5_motorcycle" depart="1831.40" departLane="best" departSpeed="max" from="E18" to="E18.410"/>
    <trip id="res_motorcycle_int547" type="res_motorcycle_int5_motorcycle" depart="1833.20" departLane="best" departSpeed="max" from="E18" to="E22.488"/>
    <trip id="res_motorcycle_int548" type="res_motorcycle_int5_motorcycle" depart="1833.80" departLane="best" departSpeed="max" from="E31" to="E30.558"/>
    <trip id="res_motorcycle_int549" type="res_motorcycle_int5_motorcycle" depart="1834.40" departLane="best" departSpeed="max" from="E31" to="E31.622"/>
    <trip id="res_motorcycle_int551" type="res_motorcycle_int5_motorcycle" depart="1835.60" departLane="best" departSpeed="max" from="E30" to="E30.558"/>
    <trip id="res_motorcycle_int552" type="res_motorcycle_int5_motorcycle" depart="1836.20" departLane="best" departSpeed="max" from="E22" to="E30.558"/>
    <trip id="res_motorcycle_int553" type="res_motorcycle_int5_motorcycle" depart="1836.80" departLane="best" departSpeed="max" from="E18" to="E22.488"/>
    <trip id="res_motorcycle_int557" type="res_motorcycle_int5_motorcycle" depart="1839.20" departLane="best" departSpeed="max" from="E31" to="E31.622"/>
    <trip id="res_motorcycle_int558" type="res_motorcycle_int5_motorcycle" depart="1839.80" departLane="best" departSpeed="max" from="E22" to="E30.558"/>
    <trip id="res_motorcycle_int560" type="res_motorcycle_int5_motorcycle" depart="1841.00" departLane="best" departSpeed="max" from="E31" to="E30.558"/>
    <trip id="res_motorcycle_int561" type="res_motorcycle_int5_motorcycle" depart="1841.60" departLane="best" departSpeed="max" from="E31" to="E30.558"/>
    <trip id="res_motorcycle_int562" type="res_motorcycle_int5_motorcycle" depart="1842.20" departLane="best" departSpeed="max" from="E18" to="E22.488"/>
    <trip id="res_motorcycle_int563" type="res_motorcycle_int5_motorcycle" depart="1842.80" departLane="best" departSpeed="max" from="E18" to="E31.622"/>
    <trip id="res_motorcycle_int564" type="res_motorcycle_int5_motorcycle" depart="1843.40" departLane="best" departSpeed="max" from="E31" to="E31.622"/>
    <trip id="res_motorcycle_int565" type="res_motorcycle_int5_motorcycle" depart="1844.00" departLane="best" departSpeed="max" from="E22" to="E18.410"/>
    <trip id="res_motorcycle_int566" type="res_motorcycle_int5_motorcycle" depart="1844.60" departLane="best" departSpeed="max" from="E31" to="E31.622"/>
    <trip id="res_motorcycle_int567" type="res_motorcycle_int5_motorcycle" depart="1845.20" departLane="best" departSpeed="max" from="E18" to="E22.488"/>
    <trip id="res_motorcycle_int568" type="res_motorcycle_int5_motorcycle" depart="1845.80" departLane="best" departSpeed="max" from="E18" to="E31.622"/>
    <trip id="res_motorcycle_int569" type="res_motorcycle_int5_motorcycle" depart="1846.40" departLane="best" departSpeed="max" from="E31" to="E18.410"/>
    <trip id="res_motorcycle_int570" type="res_motorcycle_int5_motorcycle" depart="1847.00" departLane="best" departSpeed="max" from="E22" to="E30.558"/>
    <trip id="res_motorcycle_int572" type="res_motorcycle_int5_motorcycle" depart="1848.20" departLane="best" departSpeed="max" from="E22" to="E18.410"/>
    <trip id="res_motorcycle_int573" type="res_motorcycle_int5_motorcycle" depart="1848.80" departLane="best" departSpeed="max" from="E30" to="E30.558"/>
    <trip id="res_motorcycle_int574" type="res_motorcycle_int5_motorcycle" depart="1849.40" departLane="best" departSpeed="max" from="E18" to="E22.488"/>
    <trip id="res_motorcycle_int575" type="res_motorcycle_int5_motorcycle" depart="1850.00" departLane="best" departSpeed="max" from="E31" to="E30.558"/>
    <trip id="res_motorcycle_int576" type="res_motorcycle_int5_motorcycle" depart="1850.60" departLane="best" departSpeed="max" from="E22" to="E30.558"/>
    <trip id="res_motorcycle_int577" type="res_motorcycle_int5_motorcycle" depart="1851.20" departLane="best" departSpeed="max" from="E18" to="E18.410"/>
    <trip id="res_motorcycle_int578" type="res_motorcycle_int5_motorcycle" depart="1851.80" departLane="best" departSpeed="max" from="E22" to="E30.558"/>
    <trip id="res_motorcycle_int579" type="res_motorcycle_int5_motorcycle" depart="1852.40" departLane="best" departSpeed="max" from="E18" to="E18.410"/>
    <trip id="res_motorcycle_int581" type="res_motorcycle_int5_motorcycle" depart="1853.60" departLane="best" departSpeed="max" from="E18" to="E31.622"/>
    <trip id="res_motorcycle_int582" type="res_motorcycle_int5_motorcycle" depart="1854.20" departLane="best" departSpeed="max" from="E31" to="E18.410"/>
    <trip id="res_motorcycle_int584" type="res_motorcycle_int5_motorcycle" depart="1855.40" departLane="best" departSpeed="max" from="E18" to="E18.410"/>
    <trip id="res_motorcycle_int585" type="res_motorcycle_int5_motorcycle" depart="1856.00" departLane="best" departSpeed="max" from="E31" to="E30.558"/>
    <trip id="res_motorcycle_int587" type="res_motorcycle_int5_motorcycle" depart="1857.20" departLane="best" departSpeed="max" from="E31" to="E18.410"/>
    <trip id="res_motorcycle_int588" type="res_motorcycle_int5_motorcycle" depart="1857.80" departLane="best" departSpeed="max" from="E18" to="E22.488"/>
    <trip id="res_motorcycle_int589" type="res_motorcycle_int5_motorcycle" depart="1858.40" departLane="best" departSpeed="max" from="E22" to="E22.488"/>
    <trip id="res_motorcycle_int590" type="res_motorcycle_int5_motorcycle" depart="1859.00" departLane="best" departSpeed="max" from="E30" to="E30.558"/>
    <trip id="res_motorcycle_int591" type="res_motorcycle_int5_motorcycle" depart="1859.60" departLane="best" departSpeed="max" from="E31" to="E18.410"/>
    <trip id="res_motorcycle_int592" type="res_motorcycle_int5_motorcycle" depart="1860.20" departLane="best" departSpeed="max" from="E22" to="E22.488"/>
    <trip id="res_motorcycle_int593" type="res_motorcycle_int5_motorcycle" depart="1860.80" departLane="best" departSpeed="max" from="E31" to="E18.410"/>
    <trip id="res_motorcycle_int594" type="res_motorcycle_int5_motorcycle" depart="1861.40" departLane="best" departSpeed="max" from="E18" to="E22.488"/>
    <trip id="res_motorcycle_int595" type="res_motorcycle_int5_motorcycle" depart="1862.00" departLane="best" departSpeed="max" from="E22" to="E22.488"/>
    <trip id="res_motorcycle_int596" type="res_motorcycle_int5_motorcycle" depart="1862.60" departLane="best" departSpeed="max" from="E18" to="E31.622"/>
    <trip id="res_motorcycle_int599" type="res_motorcycle_int5_motorcycle" depart="1864.40" departLane="best" departSpeed="max" from="E31" to="E31.622"/>
    <trip id="res_motorcycle_int5100" type="res_motorcycle_int5_motorcycle" depart="1865.00" departLane="best" departSpeed="max" from="E31" to="E31.622"/>
    <trip id="res_motorcycle_int5101" type="res_motorcycle_int5_motorcycle" depart="1865.60" departLane="best" departSpeed="max" from="E31" to="E18.410"/>
    <trip id="res_motorcycle_int5102" type="res_motorcycle_int5_motorcycle" depart="1866.20" departLane="best" departSpeed="max" from="E22" to="E18.410"/>
    <trip id="res_motorcycle_int5103" type="res_motorcycle_int5_motorcycle" depart="1866.80" departLane="best" departSpeed="max" from="E22" to="E18.410"/>
    <trip id="res_motorcycle_int5106" type="res_motorcycle_int5_motorcycle" depart="1868.60" departLane="best" departSpeed="max" from="E22" to="E22.488"/>
    <trip id="res_motorcycle_int5107" type="res_motorcycle_int5_motorcycle" depart="1869.20" departLane="best" departSpeed="max" from="E31" to="E31.622"/>
    <trip id="res_motorcycle_int5108" type="res_motorcycle_int5_motorcycle" depart="1869.80" departLane="best" departSpeed="max" from="E30" to="E30.558"/>
    <trip id="res_motorcycle_int5109" type="res_motorcycle_int5_motorcycle" depart="1870.40" departLane="best" departSpeed="max" from="E18" to="E22.488"/>
    <trip id="res_motorcycle_int5110" type="res_motorcycle_int5_motorcycle" depart="1871.00" departLane="best" departSpeed="max" from="E31" to="E30.558"/>
    <trip id="res_motorcycle_int5111" type="res_motorcycle_int5_motorcycle" depart="1871.60" departLane="best" departSpeed="max" from="E30" to="E30.558"/>
    <trip id="res_motorcycle_int5113" type="res_motorcycle_int5_motorcycle" depart="1872.80" departLane="best" departSpeed="max" from="E30" to="E31.622"/>
    <trip id="res_motorcycle_int5114" type="res_motorcycle_int5_motorcycle" depart="1873.40" departLane="best" departSpeed="max" from="E18" to="E31.622"/>
    <trip id="res_motorcycle_int5115" type="res_motorcycle_int5_motorcycle" depart="1874.00" departLane="best" departSpeed="max" from="E18" to="E18.410"/>
    <trip id="res_motorcycle_int5116" type="res_motorcycle_int5_motorcycle" depart="1874.60" departLane="best" departSpeed="max" from="E30" to="E30.558"/>
    <trip id="res_motorcycle_int5117" type="res_motorcycle_int5_motorcycle" depart="1875.20" departLane="best" departSpeed="max" from="E18" to="E18.410"/>
    <trip id="res_motorcycle_int5118" type="res_motorcycle_int5_motorcycle" depart="1875.80" departLane="best" departSpeed="max" from="E31" to="E18.410"/>
    <trip id="res_motorcycle_int5119" type="res_motorcycle_int5_motorcycle" depart="1876.40" departLane="best" departSpeed="max" from="E30" to="E30.558"/>
    <trip id="res_motorcycle_int5120" type="res_motorcycle_int5_motorcycle" depart="1877.00" departLane="best" departSpeed="max" from="E22" to="E30.558"/>
    <trip id="res_motorcycle_int5121" type="res_motorcycle_int5_motorcycle" depart="1877.60" departLane="best" departSpeed="max" from="E30" to="E31.622"/>
    <trip id="res_motorcycle_int5123" type="res_motorcycle_int5_motorcycle" depart="1878.80" departLane="best" departSpeed="max" from="E18" to="E22.488"/>
    <trip id="res_motorcycle_int5124" type="res_motorcycle_int5_motorcycle" depart="1879.40" departLane="best" departSpeed="max" from="E30" to="E22.488"/>
    <trip id="res_motorcycle_int5126" type="res_motorcycle_int5_motorcycle" depart="1880.60" departLane="best" departSpeed="max" from="E18" to="E22.488"/>
    <trip id="res_motorcycle_int5127" type="res_motorcycle_int5_motorcycle" depart="1881.20" departLane="best" departSpeed="max" from="E31" to="E31.622"/>
    <trip id="res_motorcycle_int5128" type="res_motorcycle_int5_motorcycle" depart="1881.80" departLane="best" departSpeed="max" from="E18" to="E18.410"/>
    <trip id="res_motorcycle_int5130" type="res_motorcycle_int5_motorcycle" depart="1883.00" departLane="best" departSpeed="max" from="E31" to="E31.622"/>
    <trip id="res_motorcycle_int5131" type="res_motorcycle_int5_motorcycle" depart="1883.60" departLane="best" departSpeed="max" from="E22" to="E18.410"/>
    <trip id="res_motorcycle_int5132" type="res_motorcycle_int5_motorcycle" depart="1884.20" departLane="best" departSpeed="max" from="E31" to="E30.558"/>
    <trip id="res_motorcycle_int5133" type="res_motorcycle_int5_motorcycle" depart="1884.80" departLane="best" departSpeed="max" from="E30" to="E31.622"/>
    <trip id="res_motorcycle_int5136" type="res_motorcycle_int5_motorcycle" depart="1886.60" departLane="best" departSpeed="max" from="E30" to="E31.622"/>
    <trip id="res_motorcycle_int5137" type="res_motorcycle_int5_motorcycle" depart="1887.20" departLane="best" departSpeed="max" from="E18" to="E18.410"/>
    <trip id="res_motorcycle_int5139" type="res_motorcycle_int5_motorcycle" depart="1888.40" departLane="best" departSpeed="max" from="E22" to="E30.558"/>
    <trip id="res_motorcycle_int5141" type="res_motorcycle_int5_motorcycle" depart="1889.60" departLane="best" departSpeed="max" from="E30" to="E22.488"/>
    <trip id="res_motorcycle_int5143" type="res_motorcycle_int5_motorcycle" depart="1890.80" departLane="best" departSpeed="max" from="E31" to="E18.410"/>
    <trip id="res_motorcycle_int5144" type="res_motorcycle_int5_motorcycle" depart="1891.40" departLane="best" departSpeed="max" from="E22" to="E22.488"/>
    <trip id="res_motorcycle_int5145" type="res_motorcycle_int5_motorcycle" depart="1892.00" departLane="best" departSpeed="max" from="E18" to="E31.622"/>
    <trip id="res_motorcycle_int5146" type="res_motorcycle_int5_motorcycle" depart="1892.60" departLane="best" departSpeed="max" from="E30" to="E22.488"/>
    <trip id="res_motorcycle_int5147" type="res_motorcycle_int5_motorcycle" depart="1893.20" departLane="best" departSpeed="max" from="E30" to="E30.558"/>
    <trip id="res_motorcycle_int5148" type="res_motorcycle_int5_motorcycle" depart="1893.80" departLane="best" departSpeed="max" from="E22" to="E18.410"/>
    <trip id="res_motorcycle_int5149" type="res_motorcycle_int5_motorcycle" depart="1894.40" departLane="best" departSpeed="max" from="E18" to="E31.622"/>
    <trip id="res_motorcycle_int5150" type="res_motorcycle_int5_motorcycle" depart="1895.00" departLane="best" departSpeed="max" from="E31" to="E30.558"/>
    <trip id="res_motorcycle_int5151" type="res_motorcycle_int5_motorcycle" depart="1895.60" departLane="best" departSpeed="max" from="E31" to="E30.558"/>
    <trip id="res_motorcycle_int5152" type="res_motorcycle_int5_motorcycle" depart="1896.20" departLane="best" departSpeed="max" from="E18" to="E18.410"/>
    <trip id="res_motorcycle_int5154" type="res_motorcycle_int5_motorcycle" depart="1897.40" departLane="best" departSpeed="max" from="E31" to="E31.622"/>
    <trip id="res_motorcycle_int5155" type="res_motorcycle_int5_motorcycle" depart="1898.00" departLane="best" departSpeed="max" from="E31" to="E18.410"/>
    <trip id="res_motorcycle_int5156" type="res_motorcycle_int5_motorcycle" depart="1898.60" departLane="best" departSpeed="max" from="E18" to="E18.410"/>
    <trip id="res_motorcycle_int5157" type="res_motorcycle_int5_motorcycle" depart="1899.20" departLane="best" departSpeed="max" from="E31" to="E31.622"/>
    <trip id="res_motorcycle_int5158" type="res_motorcycle_int5_motorcycle" depart="1899.80" departLane="best" departSpeed="max" from="E22" to="E30.558"/>
    <trip id="res_motorcycle_int5159" type="res_motorcycle_int5_motorcycle" depart="1900.40" departLane="best" departSpeed="max" from="E18" to="E31.622"/>
    <trip id="res_motorcycle_int5160" type="res_motorcycle_int5_motorcycle" depart="1901.00" departLane="best" departSpeed="max" from="E31" to="E31.622"/>
    <trip id="res_motorcycle_int5161" type="res_motorcycle_int5_motorcycle" depart="1901.60" departLane="best" departSpeed="max" from="E31" to="E31.622"/>
    <trip id="res_motorcycle_int5164" type="res_motorcycle_int5_motorcycle" depart="1903.40" departLane="best" departSpeed="max" from="E31" to="E31.622"/>
    <trip id="res_motorcycle_int5166" type="res_motorcycle_int5_motorcycle" depart="1904.60" departLane="best" departSpeed="max" from="E31" to="E18.410"/>
    <trip id="res_motorcycle_int5167" type="res_motorcycle_int5_motorcycle" depart="1905.20" departLane="best" departSpeed="max" from="E31" to="E31.622"/>
    <trip id="res_motorcycle_int5168" type="res_motorcycle_int5_motorcycle" depart="1905.80" departLane="best" departSpeed="max" from="E18" to="E31.622"/>
    <trip id="res_motorcycle_int5169" type="res_motorcycle_int5_motorcycle" depart="1906.40" departLane="best" departSpeed="max" from="E22" to="E22.488"/>
    <trip id="res_motorcycle_int5170" type="res_motorcycle_int5_motorcycle" depart="1907.00" departLane="best" departSpeed="max" from="E31" to="E18.410"/>
    <trip id="res_motorcycle_int5171" type="res_motorcycle_int5_motorcycle" depart="1907.60" departLane="best" departSpeed="max" from="E18" to="E18.410"/>
    <trip id="res_motorcycle_int5174" type="res_motorcycle_int5_motorcycle" depart="1909.40" departLane="best" departSpeed="max" from="E30" to="E22.488"/>
    <trip id="res_motorcycle_int5175" type="res_motorcycle_int5_motorcycle" depart="1910.00" departLane="best" departSpeed="max" from="E31" to="E30.558"/>
    <trip id="res_motorcycle_int5176" type="res_motorcycle_int5_motorcycle" depart="1910.60" departLane="best" departSpeed="max" from="E31" to="E18.410"/>
    <trip id="res_motorcycle_int5177" type="res_motorcycle_int5_motorcycle" depart="1911.20" departLane="best" departSpeed="max" from="E31" to="E18.410"/>
    <trip id="res_motorcycle_int5179" type="res_motorcycle_int5_motorcycle" depart="1912.40" departLane="best" departSpeed="max" from="E18" to="E22.488"/>
    <trip id="res_motorcycle_int5180" type="res_motorcycle_int5_motorcycle" depart="1913.00" departLane="best" departSpeed="max" from="E30" to="E22.488"/>
    <trip id="res_motorcycle_int5181" type="res_motorcycle_int5_motorcycle" depart="1913.60" departLane="best" departSpeed="max" from="E30" to="E30.558"/>
    <trip id="res_motorcycle_int5182" type="res_motorcycle_int5_motorcycle" depart="1914.20" departLane="best" departSpeed="max" from="E22" to="E30.558"/>
    <trip id="res_motorcycle_int5183" type="res_motorcycle_int5_motorcycle" depart="1914.80" departLane="best" departSpeed="max" from="E22" to="E30.558"/>
    <trip id="res_motorcycle_int5184" type="res_motorcycle_int5_motorcycle" depart="1915.40" departLane="best" departSpeed="max" from="E18" to="E31.622"/>
    <trip id="res_motorcycle_int5185" type="res_motorcycle_int5_motorcycle" depart="1916.00" departLane="best" departSpeed="max" from="E30" to="E30.558"/>
    <trip id="res_motorcycle_int5186" type="res_motorcycle_int5_motorcycle" depart="1916.60" departLane="best" departSpeed="max" from="E30" to="E30.558"/>
    <trip id="res_motorcycle_int5187" type="res_motorcycle_int5_motorcycle" depart="1917.20" departLane="best" departSpeed="max" from="E22" to="E18.410"/>
    <trip id="res_motorcycle_int5188" type="res_motorcycle_int5_motorcycle" depart="1917.80" departLane="best" departSpeed="max" from="E30" to="E22.488"/>
    <trip id="res_motorcycle_int5190" type="res_motorcycle_int5_motorcycle" depart="1919.00" departLane="best" departSpeed="max" from="E30" to="E22.488"/>
    <trip id="res_motorcycle_int5191" type="res_motorcycle_int5_motorcycle" depart="1919.60" departLane="best" departSpeed="max" from="E22" to="E22.488"/>
    <trip id="res_motorcycle_int5192" type="res_motorcycle_int5_motorcycle" depart="1920.20" departLane="best" departSpeed="max" from="E22" to="E22.488"/>
    <trip id="res_motorcycle_int5193" type="res_motorcycle_int5_motorcycle" depart="1920.80" departLane="best" departSpeed="max" from="E18" to="E22.488"/>
    <trip id="res_motorcycle_int5194" type="res_motorcycle_int5_motorcycle" depart="1921.40" departLane="best" departSpeed="max" from="E31" to="E30.558"/>
    <trip id="res_motorcycle_int5195" type="res_motorcycle_int5_motorcycle" depart="1922.00" departLane="best" departSpeed="max" from="E31" to="E30.558"/>
    <trip id="res_motorcycle_int5196" type="res_motorcycle_int5_motorcycle" depart="1922.60" departLane="best" departSpeed="max" from="E22" to="E30.558"/>
    <trip id="res_motorcycle_int5197" type="res_motorcycle_int5_motorcycle" depart="1923.20" departLane="best" departSpeed="max" from="E18" to="E22.488"/>
    <trip id="res_motorcycle_int5198" type="res_motorcycle_int5_motorcycle" depart="1923.80" departLane="best" departSpeed="max" from="E22" to="E30.558"/>
    <trip id="res_motorcycle_int5199" type="res_motorcycle_int5_motorcycle" depart="1924.40" departLane="best" departSpeed="max" from="E30" to="E22.488"/>
    <trip id="res_motorcycle_int5200" type="res_motorcycle_int5_motorcycle" depart="1925.00" departLane="best" departSpeed="max" from="E22" to="E18.410"/>
    <trip id="res_motorcycle_int5202" type="res_motorcycle_int5_motorcycle" depart="1926.20" departLane="best" departSpeed="max" from="E31" to="E18.410"/>
    <trip id="res_motorcycle_int5204" type="res_motorcycle_int5_motorcycle" depart="1927.40" departLane="best" departSpeed="max" from="E30" to="E22.488"/>
    <trip id="res_motorcycle_int5205" type="res_motorcycle_int5_motorcycle" depart="1928.00" departLane="best" departSpeed="max" from="E31" to="E31.622"/>
    <trip id="res_motorcycle_int5207" type="res_motorcycle_int5_motorcycle" depart="1929.20" departLane="best" departSpeed="max" from="E18" to="E18.410"/>
    <trip id="res_motorcycle_int5208" type="res_motorcycle_int5_motorcycle" depart="1929.80" departLane="best" departSpeed="max" from="E18" to="E22.488"/>
    <trip id="res_motorcycle_int5209" type="res_motorcycle_int5_motorcycle" depart="1930.40" departLane="best" departSpeed="max" from="E31" to="E18.410"/>
    <trip id="res_motorcycle_int5210" type="res_motorcycle_int5_motorcycle" depart="1931.00" departLane="best" departSpeed="max" from="E22" to="E30.558"/>
    <trip id="res_motorcycle_int5212" type="res_motorcycle_int5_motorcycle" depart="1932.20" departLane="best" departSpeed="max" from="E22" to="E18.410"/>
    <trip id="res_motorcycle_int5214" type="res_motorcycle_int5_motorcycle" depart="1933.40" departLane="best" departSpeed="max" from="E31" to="E31.622"/>
    <trip id="res_motorcycle_int5215" type="res_motorcycle_int5_motorcycle" depart="1934.00" departLane="best" departSpeed="max" from="E18" to="E22.488"/>
    <trip id="res_motorcycle_int5216" type="res_motorcycle_int5_motorcycle" depart="1934.60" departLane="best" departSpeed="max" from="E18" to="E31.622"/>
    <trip id="res_motorcycle_int5218" type="res_motorcycle_int5_motorcycle" depart="1935.80" departLane="best" departSpeed="max" from="E18" to="E31.622"/>
    <trip id="res_motorcycle_int5220" type="res_motorcycle_int5_motorcycle" depart="1937.00" departLane="best" departSpeed="max" from="E30" to="E31.622"/>
    <trip id="res_motorcycle_int5221" type="res_motorcycle_int5_motorcycle" depart="1937.60" departLane="best" departSpeed="max" from="E30" to="E31.622"/>
    <trip id="res_motorcycle_int5222" type="res_motorcycle_int5_motorcycle" depart="1938.20" departLane="best" departSpeed="max" from="E31" to="E30.558"/>
    <trip id="res_motorcycle_int5223" type="res_motorcycle_int5_motorcycle" depart="1938.80" departLane="best" departSpeed="max" from="E30" to="E30.558"/>
    <trip id="res_motorcycle_int5224" type="res_motorcycle_int5_motorcycle" depart="1939.40" departLane="best" departSpeed="max" from="E31" to="E30.558"/>
    <trip id="res_motorcycle_int5225" type="res_motorcycle_int5_motorcycle" depart="1940.00" departLane="best" departSpeed="max" from="E31" to="E30.558"/>
    <trip id="res_motorcycle_int5226" type="res_motorcycle_int5_motorcycle" depart="1940.60" departLane="best" departSpeed="max" from="E22" to="E22.488"/>
    <trip id="res_motorcycle_int5228" type="res_motorcycle_int5_motorcycle" depart="1941.80" departLane="best" departSpeed="max" from="E31" to="E30.558"/>
    <trip id="res_motorcycle_int5229" type="res_motorcycle_int5_motorcycle" depart="1942.40" departLane="best" departSpeed="max" from="E30" to="E22.488"/>
    <trip id="res_motorcycle_int5230" type="res_motorcycle_int5_motorcycle" depart="1943.00" departLane="best" departSpeed="max" from="E18" to="E22.488"/>