<routes>

<!-- generated on 2025-07-31 11:10:02.433412 by randomTrips.py v1_23_1+0000-676720d13f6
<configuration>
    <net-file value="osm.net.xml.gz"/>
    <weights-prefix value="random_edge_priority_interval_0"/>
    <output-trip-file value="osm.res_veh.interval_0.trips.xml"/>
    <prefix value="res_veh_int0"/>
    <trip-attributes value="departLane='best'"/>
    <fringe-start-attributes value="departSpeed='max'"/>
    <vehicle-class value="passenger"/>
    <remove-loops value="True"/>
    <validate value="True"/>
    <end value="360.0"/>
    <insertion-rate value="370.0"/>
</configuration>
-->

<!-- generated on 2025-07-31 11:10:02 by Eclipse SUMO duarouter Version 1.23.1
<duarouterConfiguration xmlns:xsi="http://www.w3.org/2001/XMLSchema-instance" xsi:noNamespaceSchemaLocation="http://sumo.dlr.de/xsd/duarouterConfiguration.xsd">

    <input>
        <net-file value="osm.net.xml.gz"/>
        <route-files value="osm.res_veh.interval_0.trips.xml"/>
    </input>

    <output>
        <output-file value="osm.res_veh.interval_0.trips.xml.tmp"/>
        <alternatives-output value="NUL"/>
        <write-trips value="true"/>
    </output>

    <processing>
        <remove-loops value="true"/>
    </processing>

    <time>
        <begin value="0.0"/>
        <end value="360.0"/>
    </time>

    <report>
        <no-warnings value="true"/>
        <ignore-errors value="true"/>
        <no-step-log value="true"/>
    </report>

</duarouterConfiguration>
-->

    <vType id="res_veh_int0_passenger" vClass="passenger"/>
    <trip id="res_veh_int02" type="res_veh_int0_passenger" depart="19.46" departLane="best" departSpeed="max" from="E31" to="E30.558"/>
    <trip id="res_veh_int03" type="res_veh_int0_passenger" depart="29.19" departLane="best" departSpeed="max" from="E31" to="E18.410"/>
    <trip id="res_veh_int05" type="res_veh_int0_passenger" depart="48.65" departLane="best" departSpeed="max" from="E22" to="E30.558"/>
    <trip id="res_veh_int06" type="res_veh_int0_passenger" depart="58.38" departLane="best" departSpeed="max" from="E18" to="E18.410"/>
    <trip id="res_veh_int07" type="res_veh_int0_passenger" depart="68.11" departLane="best" departSpeed="max" from="E30" to="E30.558"/>
    <trip id="res_veh_int08" type="res_veh_int0_passenger" depart="77.84" departLane="best" departSpeed="max" from="E22" to="E30.558"/>
    <trip id="res_veh_int09" type="res_veh_int0_passenger" depart="87.57" departLane="best" departSpeed="max" from="E31" to="E18.410"/>
    <trip id="res_veh_int010" type="res_veh_int0_passenger" depart="97.30" departLane="best" departSpeed="max" from="E31" to="E30.558"/>
    <trip id="res_veh_int013" type="res_veh_int0_passenger" depart="126.49" departLane="best" departSpeed="max" from="E18" to="E18.410"/>
    <trip id="res_veh_int014" type="res_veh_int0_passenger" depart="136.22" departLane="best" departSpeed="max" from="E31" to="E30.558"/>
    <trip id="res_veh_int015" type="res_veh_int0_passenger" depart="145.95" departLane="best" departSpeed="max" from="E31" to="E30.558"/>
    <trip id="res_veh_int016" type="res_veh_int0_passenger" depart="155.68" departLane="best" departSpeed="max" from="E30" to="E31.622"/>
    <trip id="res_veh_int017" type="res_veh_int0_passenger" depart="165.41" departLane="best" departSpeed="max" from="E30" to="E30.558"/>
    <trip id="res_veh_int018" type="res_veh_int0_passenger" depart="175.14" departLane="best" departSpeed="max" from="E31" to="E30.558"/>
    <trip id="res_veh_int019" type="res_veh_int0_passenger" depart="184.86" departLane="best" departSpeed="max" from="E31" to="E30.558"/>
    <trip id="res_veh_int020" type="res_veh_int0_passenger" depart="194.59" departLane="best" departSpeed="max" from="E31" to="E18.410"/>
    <trip id="res_veh_int021" type="res_veh_int0_passenger" depart="204.32" departLane="best" departSpeed="max" from="E30" to="E22.488"/>
    <trip id="res_veh_int022" type="res_veh_int0_passenger" depart="214.05" departLane="best" departSpeed="max" from="E18" to="E18.410"/>
    <trip id="res_veh_int023" type="res_veh_int0_passenger" depart="223.78" departLane="best" departSpeed="max" from="E18" to="E22.488"/>
    <trip id="res_veh_int024" type="res_veh_int0_passenger" depart="233.51" departLane="best" departSpeed="max" from="E30" to="E22.488"/>
    <trip id="res_veh_int026" type="res_veh_int0_passenger" depart="252.97" departLane="best" departSpeed="max" from="E30" to="E31.622"/>
    <trip id="res_veh_int027" type="res_veh_int0_passenger" depart="262.70" departLane="best" departSpeed="max" from="E30" to="E30.558"/>
    <trip id="res_veh_int028" type="res_veh_int0_passenger" depart="272.43" departLane="best" departSpeed="max" from="E22" to="E30.558"/>
    <trip id="res_veh_int029" type="res_veh_int0_passenger" depart="282.16" departLane="best" departSpeed="max" from="E22" to="E22.488"/>
    <trip id="res_veh_int030" type="res_veh_int0_passenger" depart="291.89" departLane="best" departSpeed="max" from="E31" to="E30.558"/>
    <trip id="res_veh_int031" type="res_veh_int0_passenger" depart="301.62" departLane="best" departSpeed="max" from="E30" to="E30.558"/>
    <trip id="res_veh_int032" type="res_veh_int0_passenger" depart="311.35" departLane="best" departSpeed="max" from="E31" to="E31.622"/>
    <trip id="res_veh_int034" type="res_veh_int0_passenger" depart="330.81" departLane="best" departSpeed="max" from="E30" to="E22.488"/>

<!-- generated on 2025-07-31 11:10:03.744732 by randomTrips.py v1_23_1+0000-676720d13f6
<configuration>
    <net-file value="osm.net.xml.gz"/>
    <weights-prefix value="random_edge_priority_interval_1"/>
    <output-trip-file value="osm.res_veh.interval_1.trips.xml"/>
    <prefix value="res_veh_int1"/>
    <trip-attributes value="departLane='best'"/>
    <fringe-start-attributes value="departSpeed='max'"/>
    <vehicle-class value="passenger"/>
    <remove-loops value="True"/>
    <validate value="True"/>
    <begin value="361.0"/>
    <end value="721.0"/>
    <insertion-rate value="370.0"/>
</configuration>
-->

<!-- generated on 2025-07-31 11:10:03 by Eclipse SUMO duarouter Version 1.23.1
<duarouterConfiguration xmlns:xsi="http://www.w3.org/2001/XMLSchema-instance" xsi:noNamespaceSchemaLocation="http://sumo.dlr.de/xsd/duarouterConfiguration.xsd">

    <input>
        <net-file value="osm.net.xml.gz"/>
        <route-files value="osm.res_veh.interval_1.trips.xml"/>
    </input>

    <output>
        <output-file value="osm.res_veh.interval_1.trips.xml.tmp"/>
        <alternatives-output value="NUL"/>
        <write-trips value="true"/>
    </output>

    <processing>
        <remove-loops value="true"/>
    </processing>

    <time>
        <begin value="361.0"/>
        <end value="721.0"/>
    </time>

    <report>
        <no-warnings value="true"/>
        <ignore-errors value="true"/>
        <no-step-log value="true"/>
    </report>

</duarouterConfiguration>
-->

    <vType id="res_veh_int1_passenger" vClass="passenger"/>
    <trip id="res_veh_int10" type="res_veh_int1_passenger" depart="361.00" departLane="best" departSpeed="max" from="E22" to="E18.410"/>
    <trip id="res_veh_int11" type="res_veh_int1_passenger" depart="370.73" departLane="best" departSpeed="max" from="E18" to="E18.410"/>
    <trip id="res_veh_int12" type="res_veh_int1_passenger" depart="380.46" departLane="best" departSpeed="max" from="E30" to="E30.558"/>
    <trip id="res_veh_int13" type="res_veh_int1_passenger" depart="390.19" departLane="best" departSpeed="max" from="E31" to="E18.410"/>
    <trip id="res_veh_int14" type="res_veh_int1_passenger" depart="399.92" departLane="best" departSpeed="max" from="E18" to="E18.410"/>
    <trip id="res_veh_int16" type="res_veh_int1_passenger" depart="419.38" departLane="best" departSpeed="max" from="E18" to="E18.410"/>
    <trip id="res_veh_int17" type="res_veh_int1_passenger" depart="429.11" departLane="best" departSpeed="max" from="E22" to="E30.558"/>
    <trip id="res_veh_int110" type="res_veh_int1_passenger" depart="458.30" departLane="best" departSpeed="max" from="E30" to="E30.558"/>
    <trip id="res_veh_int111" type="res_veh_int1_passenger" depart="468.03" departLane="best" departSpeed="max" from="E18" to="E18.410"/>
    <trip id="res_veh_int113" type="res_veh_int1_passenger" depart="487.49" departLane="best" departSpeed="max" from="E18" to="E18.410"/>
    <trip id="res_veh_int114" type="res_veh_int1_passenger" depart="497.22" departLane="best" departSpeed="max" from="E31" to="E30.558"/>
    <trip id="res_veh_int115" type="res_veh_int1_passenger" depart="506.95" departLane="best" departSpeed="max" from="E30" to="E30.558"/>
    <trip id="res_veh_int118" type="res_veh_int1_passenger" depart="536.14" departLane="best" departSpeed="max" from="E30" to="E30.558"/>
    <trip id="res_veh_int119" type="res_veh_int1_passenger" depart="545.86" departLane="best" departSpeed="max" from="E31" to="E30.558"/>
    <trip id="res_veh_int121" type="res_veh_int1_passenger" depart="565.32" departLane="best" departSpeed="max" from="E18" to="E22.488"/>
    <trip id="res_veh_int122" type="res_veh_int1_passenger" depart="575.05" departLane="best" departSpeed="max" from="E18" to="E18.410"/>
    <trip id="res_veh_int123" type="res_veh_int1_passenger" depart="584.78" departLane="best" departSpeed="max" from="E18" to="E22.488"/>
    <trip id="res_veh_int124" type="res_veh_int1_passenger" depart="594.51" departLane="best" departSpeed="max" from="E22" to="E22.488"/>
    <trip id="res_veh_int125" type="res_veh_int1_passenger" depart="604.24" departLane="best" departSpeed="max" from="E18" to="E18.410"/>
    <trip id="res_veh_int126" type="res_veh_int1_passenger" depart="613.97" departLane="best" departSpeed="max" from="E18" to="E31.622"/>
    <trip id="res_veh_int127" type="res_veh_int1_passenger" depart="623.70" departLane="best" departSpeed="max" from="E22" to="E30.558"/>
    <trip id="res_veh_int129" type="res_veh_int1_passenger" depart="643.16" departLane="best" departSpeed="max" from="E18" to="E22.488"/>
    <trip id="res_veh_int130" type="res_veh_int1_passenger" depart="652.89" departLane="best" departSpeed="max" from="E31" to="E30.558"/>
    <trip id="res_veh_int131" type="res_veh_int1_passenger" depart="662.62" departLane="best" departSpeed="max" from="E22" to="E30.558"/>
    <trip id="res_veh_int132" type="res_veh_int1_passenger" depart="672.35" departLane="best" departSpeed="max" from="E31" to="E31.622"/>
    <trip id="res_veh_int133" type="res_veh_int1_passenger" depart="682.08" departLane="best" departSpeed="max" from="E18" to="E18.410"/>
    <trip id="res_veh_int134" type="res_veh_int1_passenger" depart="691.81" departLane="best" departSpeed="max" from="E18" to="E22.488"/>
    <trip id="res_veh_int135" type="res_veh_int1_passenger" depart="701.54" departLane="best" departSpeed="max" from="E18" to="E31.622"/>

<!-- generated on 2025-07-31 11:10:04.882603 by randomTrips.py v1_23_1+0000-676720d13f6
<configuration>
    <net-file value="osm.net.xml.gz"/>
    <weights-prefix value="random_edge_priority_interval_2"/>
    <output-trip-file value="osm.res_veh.interval_2.trips.xml"/>
    <prefix value="res_veh_int2"/>
    <trip-attributes value="departLane='best'"/>
    <fringe-start-attributes value="departSpeed='max'"/>
    <vehicle-class value="passenger"/>
    <remove-loops value="True"/>
    <validate value="True"/>
    <begin value="722.0"/>
    <end value="1082.0"/>
    <insertion-rate value="370.0"/>
</configuration>
-->

<!-- generated on 2025-07-31 11:10:04 by Eclipse SUMO duarouter Version 1.23.1
<duarouterConfiguration xmlns:xsi="http://www.w3.org/2001/XMLSchema-instance" xsi:noNamespaceSchemaLocation="http://sumo.dlr.de/xsd/duarouterConfiguration.xsd">

    <input>
        <net-file value="osm.net.xml.gz"/>
        <route-files value="osm.res_veh.interval_2.trips.xml"/>
    </input>

    <output>
        <output-file value="osm.res_veh.interval_2.trips.xml.tmp"/>
        <alternatives-output value="NUL"/>
        <write-trips value="true"/>
    </output>

    <processing>
        <remove-loops value="true"/>
    </processing>

    <time>
        <begin value="722.0"/>
        <end value="1082.0"/>
    </time>

    <report>
        <no-warnings value="true"/>
        <ignore-errors value="true"/>
        <no-step-log value="true"/>
    </report>

</duarouterConfiguration>
-->

    <vType id="res_veh_int2_passenger" vClass="passenger"/>
    <trip id="res_veh_int20" type="res_veh_int2_passenger" depart="722.00" departLane="best" departSpeed="max" from="E22" to="E18.410"/>
    <trip id="res_veh_int21" type="res_veh_int2_passenger" depart="731.73" departLane="best" departSpeed="max" from="E18" to="E18.410"/>
    <trip id="res_veh_int22" type="res_veh_int2_passenger" depart="741.46" departLane="best" departSpeed="max" from="E30" to="E30.558"/>
    <trip id="res_veh_int24" type="res_veh_int2_passenger" depart="760.92" departLane="best" departSpeed="max" from="E22" to="E18.410"/>
    <trip id="res_veh_int26" type="res_veh_int2_passenger" depart="780.38" departLane="best" departSpeed="max" from="E18" to="E18.410"/>
    <trip id="res_veh_int27" type="res_veh_int2_passenger" depart="790.11" departLane="best" departSpeed="max" from="E30" to="E30.558"/>
    <trip id="res_veh_int210" type="res_veh_int2_passenger" depart="819.30" departLane="best" departSpeed="max" from="E30" to="E30.558"/>
    <trip id="res_veh_int211" type="res_veh_int2_passenger" depart="829.03" departLane="best" departSpeed="max" from="E22" to="E18.410"/>
    <trip id="res_veh_int213" type="res_veh_int2_passenger" depart="848.49" departLane="best" departSpeed="max" from="E18" to="E18.410"/>
    <trip id="res_veh_int214" type="res_veh_int2_passenger" depart="858.22" departLane="best" departSpeed="max" from="E30" to="E30.558"/>
    <trip id="res_veh_int215" type="res_veh_int2_passenger" depart="867.95" departLane="best" departSpeed="max" from="E30" to="E30.558"/>
    <trip id="res_veh_int217" type="res_veh_int2_passenger" depart="887.41" departLane="best" departSpeed="max" from="E22" to="E30.558"/>
    <trip id="res_veh_int218" type="res_veh_int2_passenger" depart="897.14" departLane="best" departSpeed="max" from="E30" to="E30.558"/>
    <trip id="res_veh_int219" type="res_veh_int2_passenger" depart="906.86" departLane="best" departSpeed="max" from="E30" to="E30.558"/>
    <trip id="res_veh_int221" type="res_veh_int2_passenger" depart="926.32" departLane="best" departSpeed="max" from="E18" to="E22.488"/>
    <trip id="res_veh_int222" type="res_veh_int2_passenger" depart="936.05" departLane="best" departSpeed="max" from="E18" to="E18.410"/>
    <trip id="res_veh_int223" type="res_veh_int2_passenger" depart="945.78" departLane="best" departSpeed="max" from="E18" to="E22.488"/>
    <trip id="res_veh_int224" type="res_veh_int2_passenger" depart="955.51" departLane="best" departSpeed="max" from="E22" to="E22.488"/>
    <trip id="res_veh_int225" type="res_veh_int2_passenger" depart="965.24" departLane="best" departSpeed="max" from="E22" to="E18.410"/>
    <trip id="res_veh_int226" type="res_veh_int2_passenger" depart="974.97" departLane="best" departSpeed="max" from="E18" to="E31.622"/>
    <trip id="res_veh_int227" type="res_veh_int2_passenger" depart="984.70" departLane="best" departSpeed="max" from="E30" to="E30.558"/>
    <trip id="res_veh_int229" type="res_veh_int2_passenger" depart="1004.16" departLane="best" departSpeed="max" from="E18" to="E22.488"/>
    <trip id="res_veh_int230" type="res_veh_int2_passenger" depart="1013.89" departLane="best" departSpeed="max" from="E31" to="E30.558"/>
    <trip id="res_veh_int231" type="res_veh_int2_passenger" depart="1023.62" departLane="best" departSpeed="max" from="E22" to="E30.558"/>
    <trip id="res_veh_int232" type="res_veh_int2_passenger" depart="1033.35" departLane="best" departSpeed="max" from="E30" to="E31.622"/>
    <trip id="res_veh_int233" type="res_veh_int2_passenger" depart="1043.08" departLane="best" departSpeed="max" from="E18" to="E18.410"/>
    <trip id="res_veh_int234" type="res_veh_int2_passenger" depart="1052.81" departLane="best" departSpeed="max" from="E22" to="E22.488"/>
    <trip id="res_veh_int235" type="res_veh_int2_passenger" depart="1062.54" departLane="best" departSpeed="max" from="E18" to="E31.622"/>
    <trip id="res_veh_int236" type="res_veh_int2_passenger" depart="1072.27" departLane="best" departSpeed="max" from="E30" to="E22.488"/>

<!-- generated on 2025-07-31 11:10:05.927542 by randomTrips.py v1_23_1+0000-676720d13f6
<configuration>
    <net-file value="osm.net.xml.gz"/>
    <weights-prefix value="random_edge_priority_interval_3"/>
    <output-trip-file value="osm.res_veh.interval_3.trips.xml"/>
    <prefix value="res_veh_int3"/>
    <trip-attributes value="departLane='best'"/>
    <fringe-start-attributes value="departSpeed='max'"/>
    <vehicle-class value="passenger"/>
    <remove-loops value="True"/>
    <validate value="True"/>
    <begin value="1083.0"/>
    <end value="1443.0"/>
    <insertion-rate value="370.0"/>
</configuration>
-->

<!-- generated on 2025-07-31 11:10:05 by Eclipse SUMO duarouter Version 1.23.1
<duarouterConfiguration xmlns:xsi="http://www.w3.org/2001/XMLSchema-instance" xsi:noNamespaceSchemaLocation="http://sumo.dlr.de/xsd/duarouterConfiguration.xsd">

    <input>
        <net-file value="osm.net.xml.gz"/>
        <route-files value="osm.res_veh.interval_3.trips.xml"/>
    </input>

    <output>
        <output-file value="osm.res_veh.interval_3.trips.xml.tmp"/>
        <alternatives-output value="NUL"/>
        <write-trips value="true"/>
    </output>

    <processing>
        <remove-loops value="true"/>
    </processing>

    <time>
        <begin value="1083.0"/>
        <end value="1443.0"/>
    </time>

    <report>
        <no-warnings value="true"/>
        <ignore-errors value="true"/>
        <no-step-log value="true"/>
    </report>

</duarouterConfiguration>
-->

    <vType id="res_veh_int3_passenger" vClass="passenger"/>
    <trip id="res_veh_int31" type="res_veh_int3_passenger" depart="1092.73" departLane="best" departSpeed="max" from="E18" to="E18.410"/>
    <trip id="res_veh_int32" type="res_veh_int3_passenger" depart="1102.46" departLane="best" departSpeed="max" from="E30" to="E30.558"/>
    <trip id="res_veh_int33" type="res_veh_int3_passenger" depart="1112.19" departLane="best" departSpeed="max" from="E31" to="E18.410"/>
    <trip id="res_veh_int34" type="res_veh_int3_passenger" depart="1121.92" departLane="best" departSpeed="max" from="E22" to="E18.410"/>
    <trip id="res_veh_int36" type="res_veh_int3_passenger" depart="1141.38" departLane="best" departSpeed="max" from="E18" to="E18.410"/>
    <trip id="res_veh_int37" type="res_veh_int3_passenger" depart="1151.11" departLane="best" departSpeed="max" from="E30" to="E30.558"/>
    <trip id="res_veh_int310" type="res_veh_int3_passenger" depart="1180.30" departLane="best" departSpeed="max" from="E30" to="E30.558"/>
    <trip id="res_veh_int311" type="res_veh_int3_passenger" depart="1190.03" departLane="best" departSpeed="max" from="E18" to="E18.410"/>
    <trip id="res_veh_int313" type="res_veh_int3_passenger" depart="1209.49" departLane="best" departSpeed="max" from="E18" to="E18.410"/>
    <trip id="res_veh_int314" type="res_veh_int3_passenger" depart="1219.22" departLane="best" departSpeed="max" from="E30" to="E30.558"/>
    <trip id="res_veh_int315" type="res_veh_int3_passenger" depart="1228.95" departLane="best" departSpeed="max" from="E30" to="E30.558"/>
    <trip id="res_veh_int316" type="res_veh_int3_passenger" depart="1238.68" departLane="best" departSpeed="max" from="E30" to="E31.622"/>
    <trip id="res_veh_int318" type="res_veh_int3_passenger" depart="1258.14" departLane="best" departSpeed="max" from="E30" to="E30.558"/>
    <trip id="res_veh_int319" type="res_veh_int3_passenger" depart="1267.86" departLane="best" departSpeed="max" from="E30" to="E30.558"/>
    <trip id="res_veh_int321" type="res_veh_int3_passenger" depart="1287.32" departLane="best" departSpeed="max" from="E18" to="E22.488"/>
    <trip id="res_veh_int322" type="res_veh_int3_passenger" depart="1297.05" departLane="best" departSpeed="max" from="E18" to="E18.410"/>
    <trip id="res_veh_int323" type="res_veh_int3_passenger" depart="1306.78" departLane="best" departSpeed="max" from="E18" to="E22.488"/>
    <trip id="res_veh_int324" type="res_veh_int3_passenger" depart="1316.51" departLane="best" departSpeed="max" from="E30" to="E22.488"/>
    <trip id="res_veh_int325" type="res_veh_int3_passenger" depart="1326.24" departLane="best" departSpeed="max" from="E18" to="E18.410"/>
    <trip id="res_veh_int326" type="res_veh_int3_passenger" depart="1335.97" departLane="best" departSpeed="max" from="E18" to="E31.622"/>
    <trip id="res_veh_int327" type="res_veh_int3_passenger" depart="1345.70" departLane="best" departSpeed="max" from="E30" to="E30.558"/>
    <trip id="res_veh_int329" type="res_veh_int3_passenger" depart="1365.16" departLane="best" departSpeed="max" from="E18" to="E22.488"/>
    <trip id="res_veh_int330" type="res_veh_int3_passenger" depart="1374.89" departLane="best" departSpeed="max" from="E31" to="E30.558"/>
    <trip id="res_veh_int331" type="res_veh_int3_passenger" depart="1384.62" departLane="best" departSpeed="max" from="E30" to="E30.558"/>
    <trip id="res_veh_int332" type="res_veh_int3_passenger" depart="1394.35" departLane="best" departSpeed="max" from="E30" to="E31.622"/>
    <trip id="res_veh_int333" type="res_veh_int3_passenger" depart="1404.08" departLane="best" departSpeed="max" from="E18" to="E18.410"/>
    <trip id="res_veh_int334" type="res_veh_int3_passenger" depart="1413.81" departLane="best" departSpeed="max" from="E18" to="E22.488"/>
    <trip id="res_veh_int335" type="res_veh_int3_passenger" depart="1423.54" departLane="best" departSpeed="max" from="E18" to="E31.622"/>
    <trip id="res_veh_int336" type="res_veh_int3_passenger" depart="1433.27" departLane="best" departSpeed="max" from="E30" to="E22.488"/>

<!-- generated on 2025-07-31 11:10:07.036369 by randomTrips.py v1_23_1+0000-676720d13f6
<configuration>
    <net-file value="osm.net.xml.gz"/>
    <weights-prefix value="random_edge_priority_interval_4"/>
    <output-trip-file value="osm.res_veh.interval_4.trips.xml"/>
    <prefix value="res_veh_int4"/>
    <trip-attributes value="departLane='best'"/>
    <fringe-start-attributes value="departSpeed='max'"/>
    <vehicle-class value="passenger"/>
    <remove-loops value="True"/>
    <validate value="True"/>
    <begin value="1444.0"/>
    <end value="1804.0"/>
    <insertion-rate value="370.0"/>
</configuration>
-->

<!-- generated on 2025-07-31 11:10:06 by Eclipse SUMO duarouter Version 1.23.1
<duarouterConfiguration xmlns:xsi="http://www.w3.org/2001/XMLSchema-instance" xsi:noNamespaceSchemaLocation="http://sumo.dlr.de/xsd/duarouterConfiguration.xsd">

    <input>
        <net-file value="osm.net.xml.gz"/>
        <route-files value="osm.res_veh.interval_4.trips.xml"/>
    </input>

    <output>
        <output-file value="osm.res_veh.interval_4.trips.xml.tmp"/>
        <alternatives-output value="NUL"/>
        <write-trips value="true"/>
    </output>

    <processing>
        <remove-loops value="true"/>
    </processing>

    <time>
        <begin value="1444.0"/>
        <end value="1804.0"/>
    </time>

    <report>
        <no-warnings value="true"/>
        <ignore-errors value="true"/>
        <no-step-log value="true"/>
    </report>

</duarouterConfiguration>
-->

    <vType id="res_veh_int4_passenger" vClass="passenger"/>
    <trip id="res_veh_int40" type="res_veh_int4_passenger" depart="1444.00" departLane="best" departSpeed="max" from="E22" to="E18.410"/>
    <trip id="res_veh_int41" type="res_veh_int4_passenger" depart="1453.73" departLane="best" departSpeed="max" from="E18" to="E18.410"/>
    <trip id="res_veh_int42" type="res_veh_int4_passenger" depart="1463.46" departLane="best" departSpeed="max" from="E30" to="E30.558"/>
    <trip id="res_veh_int43" type="res_veh_int4_passenger" depart="1473.19" departLane="best" departSpeed="max" from="E31" to="E18.410"/>
    <trip id="res_veh_int44" type="res_veh_int4_passenger" depart="1482.92" departLane="best" departSpeed="max" from="E18" to="E18.410"/>
    <trip id="res_veh_int46" type="res_veh_int4_passenger" depart="1502.38" departLane="best" departSpeed="max" from="E18" to="E18.410"/>
    <trip id="res_veh_int47" type="res_veh_int4_passenger" depart="1512.11" departLane="best" departSpeed="max" from="E22" to="E30.558"/>
    <trip id="res_veh_int410" type="res_veh_int4_passenger" depart="1541.30" departLane="best" departSpeed="max" from="E30" to="E30.558"/>
    <trip id="res_veh_int411" type="res_veh_int4_passenger" depart="1551.03" departLane="best" departSpeed="max" from="E18" to="E18.410"/>
    <trip id="res_veh_int413" type="res_veh_int4_passenger" depart="1570.49" departLane="best" departSpeed="max" from="E18" to="E18.410"/>
    <trip id="res_veh_int414" type="res_veh_int4_passenger" depart="1580.22" departLane="best" departSpeed="max" from="E31" to="E30.558"/>
    <trip id="res_veh_int415" type="res_veh_int4_passenger" depart="1589.95" departLane="best" departSpeed="max" from="E30" to="E30.558"/>
    <trip id="res_veh_int418" type="res_veh_int4_passenger" depart="1619.14" departLane="best" departSpeed="max" from="E31" to="E30.558"/>
    <trip id="res_veh_int419" type="res_veh_int4_passenger" depart="1628.86" departLane="best" departSpeed="max" from="E31" to="E30.558"/>
    <trip id="res_veh_int421" type="res_veh_int4_passenger" depart="1648.32" departLane="best" departSpeed="max" from="E18" to="E22.488"/>
    <trip id="res_veh_int422" type="res_veh_int4_passenger" depart="1658.05" departLane="best" departSpeed="max" from="E18" to="E18.410"/>
    <trip id="res_veh_int423" type="res_veh_int4_passenger" depart="1667.78" departLane="best" departSpeed="max" from="E18" to="E22.488"/>
    <trip id="res_veh_int424" type="res_veh_int4_passenger" depart="1677.51" departLane="best" departSpeed="max" from="E22" to="E22.488"/>
    <trip id="res_veh_int425" type="res_veh_int4_passenger" depart="1687.24" departLane="best" departSpeed="max" from="E18" to="E18.410"/>
    <trip id="res_veh_int426" type="res_veh_int4_passenger" depart="1696.97" departLane="best" departSpeed="max" from="E18" to="E31.622"/>
    <trip id="res_veh_int427" type="res_veh_int4_passenger" depart="1706.70" departLane="best" departSpeed="max" from="E22" to="E30.558"/>
    <trip id="res_veh_int429" type="res_veh_int4_passenger" depart="1726.16" departLane="best" departSpeed="max" from="E18" to="E22.488"/>
    <trip id="res_veh_int430" type="res_veh_int4_passenger" depart="1735.89" departLane="best" departSpeed="max" from="E31" to="E30.558"/>
    <trip id="res_veh_int431" type="res_veh_int4_passenger" depart="1745.62" departLane="best" departSpeed="max" from="E22" to="E30.558"/>
    <trip id="res_veh_int432" type="res_veh_int4_passenger" depart="1755.35" departLane="best" departSpeed="max" from="E31" to="E31.622"/>
    <trip id="res_veh_int433" type="res_veh_int4_passenger" depart="1765.08" departLane="best" departSpeed="max" from="E18" to="E18.410"/>
    <trip id="res_veh_int434" type="res_veh_int4_passenger" depart="1774.81" departLane="best" departSpeed="max" from="E18" to="E22.488"/>
    <trip id="res_veh_int435" type="res_veh_int4_passenger" depart="1784.54" departLane="best" departSpeed="max" from="E18" to="E31.622"/>

<!-- generated on 2025-07-31 11:10:08.162746 by randomTrips.py v1_23_1+0000-676720d13f6
<configuration>
    <net-file value="osm.net.xml.gz"/>
    <weights-prefix value="random_edge_priority_interval_5"/>
    <output-trip-file value="osm.res_veh.interval_5.trips.xml"/>
    <prefix value="res_veh_int5"/>
    <trip-attributes value="departLane='best'"/>
    <fringe-start-attributes value="departSpeed='max'"/>
    <vehicle-class value="passenger"/>
    <remove-loops value="True"/>
    <validate value="True"/>
    <begin value="1805.0"/>
    <end value="2165.0"/>
    <insertion-rate value="370.0"/>
</configuration>
-->

<!-- generated on 2025-07-31 11:10:08 by Eclipse SUMO duarouter Version 1.23.1
<duarouterConfiguration xmlns:xsi="http://www.w3.org/2001/XMLSchema-instance" xsi:noNamespaceSchemaLocation="http://sumo.dlr.de/xsd/duarouterConfiguration.xsd">

    <input>
        <net-file value="osm.net.xml.gz"/>
        <route-files value="osm.res_veh.interval_5.trips.xml"/>
    </input>

    <output>
        <output-file value="osm.res_veh.interval_5.trips.xml.tmp"/>
        <alternatives-output value="NUL"/>
        <write-trips value="true"/>
    </output>

    <processing>
        <remove-loops value="true"/>
    </processing>

    <time>
        <begin value="1805.0"/>
        <end value="2165.0"/>
    </time>

    <report>
        <no-warnings value="true"/>
        <ignore-errors value="true"/>
        <no-step-log value="true"/>
    </report>

</duarouterConfiguration>
-->

    <vType id="res_veh_int5_passenger" vClass="passenger"/>
    <trip id="res_veh_int51" type="res_veh_int5_passenger" depart="1814.73" departLane="best" departSpeed="max" from="E18" to="E18.410"/>
    <trip id="res_veh_int52" type="res_veh_int5_passenger" depart="1824.46" departLane="best" departSpeed="max" from="E30" to="E30.558"/>
    <trip id="res_veh_int53" type="res_veh_int5_passenger" depart="1834.19" departLane="best" departSpeed="max" from="E31" to="E18.410"/>
    <trip id="res_veh_int54" type="res_veh_int5_passenger" depart="1843.92" departLane="best" departSpeed="max" from="E22" to="E18.410"/>
    <trip id="res_veh_int56" type="res_veh_int5_passenger" depart="1863.38" departLane="best" departSpeed="max" from="E18" to="E18.410"/>
    <trip id="res_veh_int57" type="res_veh_int5_passenger" depart="1873.11" departLane="best" departSpeed="max" from="E30" to="E30.558"/>
    <trip id="res_veh_int510" type="res_veh_int5_passenger" depart="1902.30" departLane="best" departSpeed="max" from="E30" to="E30.558"/>