<?xml version="1.0" encoding="UTF-8"?>

<!-- generated on 2025-07-30 17:24:51.459719 by randomTrips.py v1_23_1+0000-676720d13f6
<configuration>
    <net-file value="osm.net.xml.gz"/>
    <weights-prefix value="random_edge_priority_interval_3"/>
    <output-trip-file value="osm.res_motorcycle.interval_3.trips.xml"/>
    <prefix value="res_motorcycle_int3"/>
    <trip-attributes value="departLane='best'"/>
    <fringe-start-attributes value="departSpeed='max'"/>
    <vehicle-class value="motorcycle"/>
    <vclass value="motorcycle"/>
    <remove-loops value="True"/>
    <validate value="True"/>
    <begin value="1083.0"/>
    <end value="1443.0"/>
    <insertion-rate value="1500.0"/>
</configuration>
-->

<!-- generated on 2025-07-30 17:24:51 by Eclipse SUMO duarouter Version 1.23.1
<duarouterConfiguration xmlns:xsi="http://www.w3.org/2001/XMLSchema-instance" xsi:noNamespaceSchemaLocation="http://sumo.dlr.de/xsd/duarouterConfiguration.xsd">

    <input>
        <net-file value="osm.net.xml.gz"/>
        <route-files value="osm.res_motorcycle.interval_3.trips.xml"/>
    </input>

    <output>
        <output-file value="osm.res_motorcycle.interval_3.trips.xml.tmp"/>
        <alternatives-output value="NUL"/>
        <write-trips value="true"/>
    </output>

    <processing>
        <remove-loops value="true"/>
    </processing>

    <time>
        <begin value="1083.0"/>
        <end value="1443.0"/>
    </time>

    <report>
        <no-warnings value="true"/>
        <ignore-errors value="true"/>
        <no-step-log value="true"/>
    </report>

</duarouterConfiguration>
-->

<routes xmlns:xsi="http://www.w3.org/2001/XMLSchema-instance" xsi:noNamespaceSchemaLocation="http://sumo.dlr.de/xsd/routes_file.xsd">
    <vType id="res_motorcycle_int3_motorcycle" vClass="motorcycle"/>
    <trip id="res_motorcycle_int31" type="res_motorcycle_int3_motorcycle" depart="1085.40" departLane="best" departSpeed="max" from="E22" to="E18.410"/>
    <trip id="res_motorcycle_int32" type="res_motorcycle_int3_motorcycle" depart="1087.80" departLane="best" departSpeed="max" from="E30" to="E30.558"/>
    <trip id="res_motorcycle_int33" type="res_motorcycle_int3_motorcycle" depart="1090.20" departLane="best" departSpeed="max" from="E31" to="E18.410"/>
    <trip id="res_motorcycle_int34" type="res_motorcycle_int3_motorcycle" depart="1092.60" departLane="best" departSpeed="max" from="E22" to="E18.410"/>
    <trip id="res_motorcycle_int36" type="res_motorcycle_int3_motorcycle" depart="1097.40" departLane="best" departSpeed="max" from="E18" to="E18.410"/>
    <trip id="res_motorcycle_int37" type="res_motorcycle_int3_motorcycle" depart="1099.80" departLane="best" departSpeed="max" from="E30" to="E30.558"/>
    <trip id="res_motorcycle_int39" type="res_motorcycle_int3_motorcycle" depart="1104.60" departLane="best" departSpeed="max" from="E31" to="E18.410"/>
    <trip id="res_motorcycle_int310" type="res_motorcycle_int3_motorcycle" depart="1107.00" departLane="best" departSpeed="max" from="E31" to="E30.558"/>
    <trip id="res_motorcycle_int311" type="res_motorcycle_int3_motorcycle" depart="1109.40" departLane="best" departSpeed="max" from="E22" to="E18.410"/>
    <trip id="res_motorcycle_int313" type="res_motorcycle_int3_motorcycle" depart="1114.20" departLane="best" departSpeed="max" from="E18" to="E18.410"/>
    <trip id="res_motorcycle_int314" type="res_motorcycle_int3_motorcycle" depart="1116.60" departLane="best" departSpeed="max" from="E31" to="E30.558"/>
    <trip id="res_motorcycle_int315" type="res_motorcycle_int3_motorcycle" depart="1119.00" departLane="best" departSpeed="max" from="E31" to="E30.558"/>
    <trip id="res_motorcycle_int316" type="res_motorcycle_int3_motorcycle" depart="1121.40" departLane="best" departSpeed="max" from="E30" to="E31.622"/>
    <trip id="res_motorcycle_int317" type="res_motorcycle_int3_motorcycle" depart="1123.80" departLane="best" departSpeed="max" from="E22" to="E30.558"/>
    <trip id="res_motorcycle_int318" type="res_motorcycle_int3_motorcycle" depart="1126.20" departLane="best" departSpeed="max" from="E31" to="E30.558"/>
    <trip id="res_motorcycle_int319" type="res_motorcycle_int3_motorcycle" depart="1128.60" departLane="best" departSpeed="max" from="E31" to="E30.558"/>
    <trip id="res_motorcycle_int321" type="res_motorcycle_int3_motorcycle" depart="1133.40" departLane="best" departSpeed="max" from="E18" to="E22.488"/>
    <trip id="res_motorcycle_int322" type="res_motorcycle_int3_motorcycle" depart="1135.80" departLane="best" departSpeed="max" from="E18" to="E18.410"/>
    <trip id="res_motorcycle_int323" type="res_motorcycle_int3_motorcycle" depart="1138.20" departLane="best" departSpeed="max" from="E18" to="E22.488"/>
    <trip id="res_motorcycle_int324" type="res_motorcycle_int3_motorcycle" depart="1140.60" departLane="best" departSpeed="max" from="E30" to="E22.488"/>
    <trip id="res_motorcycle_int325" type="res_motorcycle_int3_motorcycle" depart="1143.00" departLane="best" departSpeed="max" from="E22" to="E18.410"/>
    <trip id="res_motorcycle_int327" type="res_motorcycle_int3_motorcycle" depart="1147.80" departLane="best" departSpeed="max" from="E30" to="E30.558"/>
    <trip id="res_motorcycle_int329" type="res_motorcycle_int3_motorcycle" depart="1152.60" departLane="best" departSpeed="max" from="E18" to="E22.488"/>
    <trip id="res_motorcycle_int330" type="res_motorcycle_int3_motorcycle" depart="1155.00" departLane="best" departSpeed="max" from="E31" to="E30.558"/>
    <trip id="res_motorcycle_int331" type="res_motorcycle_int3_motorcycle" depart="1157.40" departLane="best" departSpeed="max" from="E30" to="E30.558"/>
    <trip id="res_motorcycle_int332" type="res_motorcycle_int3_motorcycle" depart="1159.80" departLane="best" departSpeed="max" from="E31" to="E31.622"/>
    <trip id="res_motorcycle_int333" type="res_motorcycle_int3_motorcycle" depart="1162.20" departLane="best" departSpeed="max" from="E18" to="E18.410"/>
    <trip id="res_motorcycle_int334" type="res_motorcycle_int3_motorcycle" depart="1164.60" departLane="best" departSpeed="max" from="E22" to="E22.488"/>
    <trip id="res_motorcycle_int335" type="res_motorcycle_int3_motorcycle" depart="1167.00" departLane="best" departSpeed="max" from="E18" to="E31.622"/>
    <trip id="res_motorcycle_int337" type="res_motorcycle_int3_motorcycle" depart="1171.80" departLane="best" departSpeed="max" from="E30" to="E22.488"/>
    <trip id="res_motorcycle_int339" type="res_motorcycle_int3_motorcycle" depart="1176.60" departLane="best" departSpeed="max" from="E22" to="E18.410"/>
    <trip id="res_motorcycle_int340" type="res_motorcycle_int3_motorcycle" depart="1179.00" departLane="best" departSpeed="max" from="E30" to="E22.488"/>
    <trip id="res_motorcycle_int341" type="res_motorcycle_int3_motorcycle" depart="1181.40" departLane="best" departSpeed="max" from="E30" to="E31.622"/>
    <trip id="res_motorcycle_int342" type="res_motorcycle_int3_motorcycle" depart="1183.80" departLane="best" departSpeed="max" from="E22" to="E18.410"/>
    <trip id="res_motorcycle_int343" type="res_motorcycle_int3_motorcycle" depart="1186.20" departLane="best" departSpeed="max" from="E31" to="E30.558"/>
    <trip id="res_motorcycle_int344" type="res_motorcycle_int3_motorcycle" depart="1188.60" departLane="best" departSpeed="max" from="E18" to="E18.410"/>
    <trip id="res_motorcycle_int347" type="res_motorcycle_int3_motorcycle" depart="1195.80" departLane="best" departSpeed="max" from="E18" to="E22.488"/>
    <trip id="res_motorcycle_int348" type="res_motorcycle_int3_motorcycle" depart="1198.20" departLane="best" departSpeed="max" from="E31" to="E30.558"/>
    <trip id="res_motorcycle_int349" type="res_motorcycle_int3_motorcycle" depart="1200.60" departLane="best" departSpeed="max" from="E31" to="E31.622"/>
    <trip id="res_motorcycle_int351" type="res_motorcycle_int3_motorcycle" depart="1205.40" departLane="best" departSpeed="max" from="E30" to="E30.558"/>
    <trip id="res_motorcycle_int352" type="res_motorcycle_int3_motorcycle" depart="1207.80" departLane="best" departSpeed="max" from="E22" to="E30.558"/>
    <trip id="res_motorcycle_int353" type="res_motorcycle_int3_motorcycle" depart="1210.20" departLane="best" departSpeed="max" from="E18" to="E22.488"/>
    <trip id="res_motorcycle_int357" type="res_motorcycle_int3_motorcycle" depart="1219.80" departLane="best" departSpeed="max" from="E31" to="E31.622"/>
    <trip id="res_motorcycle_int358" type="res_motorcycle_int3_motorcycle" depart="1222.20" departLane="best" departSpeed="max" from="E22" to="E30.558"/>
    <trip id="res_motorcycle_int360" type="res_motorcycle_int3_motorcycle" depart="1227.00" departLane="best" departSpeed="max" from="E31" to="E30.558"/>
    <trip id="res_motorcycle_int361" type="res_motorcycle_int3_motorcycle" depart="1229.40" departLane="best" departSpeed="max" from="E31" to="E30.558"/>
    <trip id="res_motorcycle_int362" type="res_motorcycle_int3_motorcycle" depart="1231.80" departLane="best" departSpeed="max" from="E18" to="E22.488"/>
    <trip id="res_motorcycle_int363" type="res_motorcycle_int3_motorcycle" depart="1234.20" departLane="best" departSpeed="max" from="E18" to="E31.622"/>
    <trip id="res_motorcycle_int364" type="res_motorcycle_int3_motorcycle" depart="1236.60" departLane="best" departSpeed="max" from="E31" to="E31.622"/>
    <trip id="res_motorcycle_int365" type="res_motorcycle_int3_motorcycle" depart="1239.00" departLane="best" departSpeed="max" from="E22" to="E18.410"/>
    <trip id="res_motorcycle_int366" type="res_motorcycle_int3_motorcycle" depart="1241.40" departLane="best" departSpeed="max" from="E31" to="E31.622"/>
    <trip id="res_motorcycle_int367" type="res_motorcycle_int3_motorcycle" depart="1243.80" departLane="best" departSpeed="max" from="E18" to="E22.488"/>
    <trip id="res_motorcycle_int368" type="res_motorcycle_int3_motorcycle" depart="1246.20" departLane="best" departSpeed="max" from="E18" to="E31.622"/>
    <trip id="res_motorcycle_int369" type="res_motorcycle_int3_motorcycle" depart="1248.60" departLane="best" departSpeed="max" from="E31" to="E18.410"/>
    <trip id="res_motorcycle_int370" type="res_motorcycle_int3_motorcycle" depart="1251.00" departLane="best" departSpeed="max" from="E22" to="E30.558"/>
    <trip id="res_motorcycle_int372" type="res_motorcycle_int3_motorcycle" depart="1255.80" departLane="best" departSpeed="max" from="E22" to="E18.410"/>
    <trip id="res_motorcycle_int373" type="res_motorcycle_int3_motorcycle" depart="1258.20" departLane="best" departSpeed="max" from="E30" to="E30.558"/>
    <trip id="res_motorcycle_int374" type="res_motorcycle_int3_motorcycle" depart="1260.60" departLane="best" departSpeed="max" from="E18" to="E22.488"/>
    <trip id="res_motorcycle_int375" type="res_motorcycle_int3_motorcycle" depart="1263.00" departLane="best" departSpeed="max" from="E31" to="E30.558"/>
    <trip id="res_motorcycle_int376" type="res_motorcycle_int3_motorcycle" depart="1265.40" departLane="best" departSpeed="max" from="E22" to="E30.558"/>
    <trip id="res_motorcycle_int377" type="res_motorcycle_int3_motorcycle" depart="1267.80" departLane="best" departSpeed="max" from="E18" to="E18.410"/>
    <trip id="res_motorcycle_int378" type="res_motorcycle_int3_motorcycle" depart="1270.20" departLane="best" departSpeed="max" from="E22" to="E30.558"/>
    <trip id="res_motorcycle_int379" type="res_motorcycle_int3_motorcycle" depart="1272.60" departLane="best" departSpeed="max" from="E18" to="E18.410"/>
    <trip id="res_motorcycle_int381" type="res_motorcycle_int3_motorcycle" depart="1277.40" departLane="best" departSpeed="max" from="E18" to="E31.622"/>
    <trip id="res_motorcycle_int382" type="res_motorcycle_int3_motorcycle" depart="1279.80" departLane="best" departSpeed="max" from="E31" to="E18.410"/>
    <trip id="res_motorcycle_int384" type="res_motorcycle_int3_motorcycle" depart="1284.60" departLane="best" departSpeed="max" from="E18" to="E18.410"/>
    <trip id="res_motorcycle_int385" type="res_motorcycle_int3_motorcycle" depart="1287.00" departLane="best" departSpeed="max" from="E31" to="E30.558"/>
    <trip id="res_motorcycle_int387" type="res_motorcycle_int3_motorcycle" depart="1291.80" departLane="best" departSpeed="max" from="E31" to="E18.410"/>
    <trip id="res_motorcycle_int388" type="res_motorcycle_int3_motorcycle" depart="1294.20" departLane="best" departSpeed="max" from="E18" to="E22.488"/>
    <trip id="res_motorcycle_int389" type="res_motorcycle_int3_motorcycle" depart="1296.60" departLane="best" departSpeed="max" from="E22" to="E22.488"/>
    <trip id="res_motorcycle_int390" type="res_motorcycle_int3_motorcycle" depart="1299.00" departLane="best" departSpeed="max" from="E30" to="E30.558"/>
    <trip id="res_motorcycle_int391" type="res_motorcycle_int3_motorcycle" depart="1301.40" departLane="best" departSpeed="max" from="E31" to="E18.410"/>
    <trip id="res_motorcycle_int392" type="res_motorcycle_int3_motorcycle" depart="1303.80" departLane="best" departSpeed="max" from="E22" to="E22.488"/>
    <trip id="res_motorcycle_int393" type="res_motorcycle_int3_motorcycle" depart="1306.20" departLane="best" departSpeed="max" from="E31" to="E18.410"/>
    <trip id="res_motorcycle_int394" type="res_motorcycle_int3_motorcycle" depart="1308.60" departLane="best" departSpeed="max" from="E18" to="E22.488"/>
    <trip id="res_motorcycle_int395" type="res_motorcycle_int3_motorcycle" depart="1311.00" departLane="best" departSpeed="max" from="E22" to="E22.488"/>
    <trip id="res_motorcycle_int396" type="res_motorcycle_int3_motorcycle" depart="1313.40" departLane="best" departSpeed="max" from="E18" to="E31.622"/>
    <trip id="res_motorcycle_int399" type="res_motorcycle_int3_motorcycle" depart="1320.60" departLane="best" departSpeed="max" from="E31" to="E31.622"/>
    <trip id="res_motorcycle_int3100" type="res_motorcycle_int3_motorcycle" depart="1323.00" departLane="best" departSpeed="max" from="E31" to="E31.622"/>
    <trip id="res_motorcycle_int3101" type="res_motorcycle_int3_motorcycle" depart="1325.40" departLane="best" departSpeed="max" from="E31" to="E18.410"/>
    <trip id="res_motorcycle_int3102" type="res_motorcycle_int3_motorcycle" depart="1327.80" departLane="best" departSpeed="max" from="E22" to="E18.410"/>
    <trip id="res_motorcycle_int3103" type="res_motorcycle_int3_motorcycle" depart="1330.20" departLane="best" departSpeed="max" from="E22" to="E18.410"/>
    <trip id="res_motorcycle_int3106" type="res_motorcycle_int3_motorcycle" depart="1337.40" departLane="best" departSpeed="max" from="E22" to="E22.488"/>
    <trip id="res_motorcycle_int3107" type="res_motorcycle_int3_motorcycle" depart="1339.80" departLane="best" departSpeed="max" from="E31" to="E31.622"/>
    <trip id="res_motorcycle_int3108" type="res_motorcycle_int3_motorcycle" depart="1342.20" departLane="best" departSpeed="max" from="E30" to="E30.558"/>
    <trip id="res_motorcycle_int3109" type="res_motorcycle_int3_motorcycle" depart="1344.60" departLane="best" departSpeed="max" from="E18" to="E22.488"/>
    <trip id="res_motorcycle_int3110" type="res_motorcycle_int3_motorcycle" depart="1347.00" departLane="best" departSpeed="max" from="E31" to="E30.558"/>
    <trip id="res_motorcycle_int3111" type="res_motorcycle_int3_motorcycle" depart="1349.40" departLane="best" departSpeed="max" from="E30" to="E30.558"/>
    <trip id="res_motorcycle_int3113" type="res_motorcycle_int3_motorcycle" depart="1354.20" departLane="best" departSpeed="max" from="E30" to="E31.622"/>
    <trip id="res_motorcycle_int3114" type="res_motorcycle_int3_motorcycle" depart="1356.60" departLane="best" departSpeed="max" from="E18" to="E31.622"/>
    <trip id="res_motorcycle_int3115" type="res_motorcycle_int3_motorcycle" depart="1359.00" departLane="best" departSpeed="max" from="E18" to="E18.410"/>
    <trip id="res_motorcycle_int3116" type="res_motorcycle_int3_motorcycle" depart="1361.40" departLane="best" departSpeed="max" from="E30" to="E30.558"/>
    <trip id="res_motorcycle_int3117" type="res_motorcycle_int3_motorcycle" depart="1363.80" departLane="best" departSpeed="max" from="E18" to="E18.410"/>
    <trip id="res_motorcycle_int3118" type="res_motorcycle_int3_motorcycle" depart="1366.20" departLane="best" departSpeed="max" from="E31" to="E18.410"/>
    <trip id="res_motorcycle_int3119" type="res_motorcycle_int3_motorcycle" depart="1368.60" departLane="best" departSpeed="max" from="E30" to="E30.558"/>
    <trip id="res_motorcycle_int3120" type="res_motorcycle_int3_motorcycle" depart="1371.00" departLane="best" departSpeed="max" from="E22" to="E30.558"/>
    <trip id="res_motorcycle_int3121" type="res_motorcycle_int3_motorcycle" depart="1373.40" departLane="best" departSpeed="max" from="E30" to="E31.622"/>
    <trip id="res_motorcycle_int3123" type="res_motorcycle_int3_motorcycle" depart="1378.20" departLane="best" departSpeed="max" from="E18" to="E22.488"/>
    <trip id="res_motorcycle_int3124" type="res_motorcycle_int3_motorcycle" depart="1380.60" departLane="best" departSpeed="max" from="E30" to="E22.488"/>
    <trip id="res_motorcycle_int3126" type="res_motorcycle_int3_motorcycle" depart="1385.40" departLane="best" departSpeed="max" from="E18" to="E22.488"/>
    <trip id="res_motorcycle_int3127" type="res_motorcycle_int3_motorcycle" depart="1387.80" departLane="best" departSpeed="max" from="E31" to="E31.622"/>
    <trip id="res_motorcycle_int3128" type="res_motorcycle_int3_motorcycle" depart="1390.20" departLane="best" departSpeed="max" from="E18" to="E18.410"/>
    <trip id="res_motorcycle_int3130" type="res_motorcycle_int3_motorcycle" depart="1395.00" departLane="best" departSpeed="max" from="E31" to="E31.622"/>
    <trip id="res_motorcycle_int3131" type="res_motorcycle_int3_motorcycle" depart="1397.40" departLane="best" departSpeed="max" from="E22" to="E18.410"/>
    <trip id="res_motorcycle_int3132" type="res_motorcycle_int3_motorcycle" depart="1399.80" departLane="best" departSpeed="max" from="E31" to="E30.558"/>
    <trip id="res_motorcycle_int3133" type="res_motorcycle_int3_motorcycle" depart="1402.20" departLane="best" departSpeed="max" from="E30" to="E31.622"/>
    <trip id="res_motorcycle_int3136" type="res_motorcycle_int3_motorcycle" depart="1409.40" departLane="best" departSpeed="max" from="E30" to="E31.622"/>
    <trip id="res_motorcycle_int3137" type="res_motorcycle_int3_motorcycle" depart="1411.80" departLane="best" departSpeed="max" from="E18" to="E18.410"/>
    <trip id="res_motorcycle_int3139" type="res_motorcycle_int3_motorcycle" depart="1416.60" departLane="best" departSpeed="max" from="E22" to="E30.558"/>
    <trip id="res_motorcycle_int3141" type="res_motorcycle_int3_motorcycle" depart="1421.40" departLane="best" departSpeed="max" from="E30" to="E22.488"/>
    <trip id="res_motorcycle_int3143" type="res_motorcycle_int3_motorcycle" depart="1426.20" departLane="best" departSpeed="max" from="E31" to="E18.410"/>
    <trip id="res_motorcycle_int3144" type="res_motorcycle_int3_motorcycle" depart="1428.60" departLane="best" departSpeed="max" from="E22" to="E22.488"/>
    <trip id="res_motorcycle_int3145" type="res_motorcycle_int3_motorcycle" depart="1431.00" departLane="best" departSpeed="max" from="E18" to="E31.622"/>
    <trip id="res_motorcycle_int3146" type="res_motorcycle_int3_motorcycle" depart="1433.40" departLane="best" departSpeed="max" from="E30" to="E22.488"/>
    <trip id="res_motorcycle_int3147" type="res_motorcycle_int3_motorcycle" depart="1435.80" departLane="best" departSpeed="max" from="E30" to="E30.558"/>
    <trip id="res_motorcycle_int3148" type="res_motorcycle_int3_motorcycle" depart="1438.20" departLane="best" departSpeed="max" from="E22" to="E18.410"/>
    <trip id="res_motorcycle_int3149" type="res_motorcycle_int3_motorcycle" depart="1440.60" departLane="best" departSpeed="max" from="E18" to="E31.622"/>
</routes>
