<routes>

<!-- generated on 2025-08-19 18:12:41.681766 by randomTrips.py UNKNOWN
<configuration>
    <net-file value="osm.net.xml.gz"/>
    <weights-prefix value="random_edge_priority_interval_0"/>
    <output-trip-file value="osm.res_bike.interval_0.trips.xml"/>
    <route-file value="osm.res_bike.interval_0.rou.xml"/>
    <prefix value="res_bike_int0"/>
    <trip-attributes value="departLane=&quot;best&quot;"/>
    <fringe-start-attributes value="departSpeed=&quot;max&quot;"/>
    <vehicle-class value="bicycle"/>
    <vclass value="bicycle"/>
    <remove-loops value="True"/>
    <validate value="True"/>
    <verbose value="True"/>
    <insertion-rate value="30.0"/>
</configuration>
-->

<!-- generated on 2025-08-19 18:12:41 by Eclipse SUMO duarouter Version 1.22.0
<duarouterConfiguration xmlns:xsi="http://www.w3.org/2001/XMLSchema-instance" xsi:noNamespaceSchemaLocation="http://sumo.dlr.de/xsd/duarouterConfiguration.xsd">

    <input>
        <net-file value="osm.net.xml.gz"/>
        <route-files value="osm.res_bike.interval_0.trips.xml"/>
    </input>

    <output>
        <output-file value="osm.res_bike.interval_0.trips.xml.tmp"/>
        <alternatives-output value="NUL"/>
        <write-trips value="true"/>
    </output>

    <processing>
        <remove-loops value="true"/>
    </processing>

    <time>
        <begin value="0.0"/>
        <end value="3600.0"/>
    </time>

    <report>
        <verbose value="true"/>
        <ignore-errors value="true"/>
        <no-step-log value="true"/>
    </report>

</duarouterConfiguration>
-->

    <vType id="res_bike_int0_bicycle" vClass="bicycle"/>
    <trip id="res_bike_int01" type="res_bike_int0_bicycle" depart="120.00" departLane="best" departSpeed="max" from="E22" to="E18.410"/>
    <trip id="res_bike_int02" type="res_bike_int0_bicycle" depart="240.00" departLane="best" departSpeed="max" from="E30" to="E30.558"/>
    <trip id="res_bike_int04" type="res_bike_int0_bicycle" depart="480.00" departLane="best" departSpeed="max" from="E22" to="E18.410"/>
    <trip id="res_bike_int05" type="res_bike_int0_bicycle" depart="600.00" departLane="best" departSpeed="max" from="E22" to="E30.558"/>
    <trip id="res_bike_int06" type="res_bike_int0_bicycle" depart="720.00" departLane="best" departSpeed="max" from="E18" to="E18.410"/>
    <trip id="res_bike_int07" type="res_bike_int0_bicycle" depart="840.00" departLane="best" departSpeed="max" from="E30" to="E30.558"/>
    <trip id="res_bike_int08" type="res_bike_int0_bicycle" depart="960.00" departLane="best" departSpeed="max" from="E22" to="E30.558"/>
    <trip id="res_bike_int010" type="res_bike_int0_bicycle" depart="1200.00" departLane="best" departSpeed="max" from="E30" to="E30.558"/>
    <trip id="res_bike_int011" type="res_bike_int0_bicycle" depart="1320.00" departLane="best" departSpeed="max" from="E22" to="E18.410"/>
    <trip id="res_bike_int013" type="res_bike_int0_bicycle" depart="1560.00" departLane="best" departSpeed="max" from="E22" to="E18.410"/>
    <trip id="res_bike_int014" type="res_bike_int0_bicycle" depart="1680.00" departLane="best" departSpeed="max" from="E30" to="E30.558"/>
    <trip id="res_bike_int015" type="res_bike_int0_bicycle" depart="1800.00" departLane="best" departSpeed="max" from="E30" to="E30.558"/>
    <trip id="res_bike_int017" type="res_bike_int0_bicycle" depart="2040.00" departLane="best" departSpeed="max" from="E22" to="E30.558"/>
    <trip id="res_bike_int018" type="res_bike_int0_bicycle" depart="2160.00" departLane="best" departSpeed="max" from="E30" to="E30.558"/>
    <trip id="res_bike_int019" type="res_bike_int0_bicycle" depart="2280.00" departLane="best" departSpeed="max" from="E30" to="E30.558"/>
    <trip id="res_bike_int021" type="res_bike_int0_bicycle" depart="2520.00" departLane="best" departSpeed="max" from="E22" to="E22.488"/>
    <trip id="res_bike_int022" type="res_bike_int0_bicycle" depart="2640.00" departLane="best" departSpeed="max" from="E22" to="E18.410"/>
    <trip id="res_bike_int023" type="res_bike_int0_bicycle" depart="2760.00" departLane="best" departSpeed="max" from="E22" to="E22.488"/>
    <trip id="res_bike_int024" type="res_bike_int0_bicycle" depart="2880.00" departLane="best" departSpeed="max" from="E30" to="E22.488"/>
    <trip id="res_bike_int025" type="res_bike_int0_bicycle" depart="3000.00" departLane="best" departSpeed="max" from="E22" to="E18.410"/>
    <trip id="res_bike_int027" type="res_bike_int0_bicycle" depart="3240.00" departLane="best" departSpeed="max" from="E30" to="E30.558"/>
    <trip id="res_bike_int028" type="res_bike_int0_bicycle" depart="3360.00" departLane="best" departSpeed="max" from="E22" to="E30.558"/>
    <trip id="res_bike_int029" type="res_bike_int0_bicycle" depart="3480.00" departLane="best" departSpeed="max" from="E22" to="E22.488"/>

<!-- generated on 2025-08-19 18:12:42.437174 by randomTrips.py UNKNOWN
<configuration>
    <net-file value="osm.net.xml.gz"/>
    <weights-prefix value="random_edge_priority_interval_1"/>
    <output-trip-file value="osm.res_bike.interval_1.trips.xml"/>
    <route-file value="osm.res_bike.interval_1.rou.xml"/>
    <prefix value="res_bike_int1"/>
    <trip-attributes value="departLane=&quot;best&quot;"/>
    <fringe-start-attributes value="departSpeed=&quot;max&quot;"/>
    <vehicle-class value="bicycle"/>
    <vclass value="bicycle"/>
    <remove-loops value="True"/>
    <validate value="True"/>
    <verbose value="True"/>
    <begin value="3601.0"/>
    <end value="7200.0"/>
    <insertion-rate value="60.01667129758266"/>
</configuration>
-->

<!-- generated on 2025-08-19 18:12:42 by Eclipse SUMO duarouter Version 1.22.0
<duarouterConfiguration xmlns:xsi="http://www.w3.org/2001/XMLSchema-instance" xsi:noNamespaceSchemaLocation="http://sumo.dlr.de/xsd/duarouterConfiguration.xsd">

    <input>
        <net-file value="osm.net.xml.gz"/>
        <route-files value="osm.res_bike.interval_1.trips.xml"/>
    </input>

    <output>
        <output-file value="osm.res_bike.interval_1.trips.xml.tmp"/>
        <alternatives-output value="NUL"/>
        <write-trips value="true"/>
    </output>

    <processing>
        <remove-loops value="true"/>
    </processing>

    <time>
        <begin value="3601.0"/>
        <end value="7200.0"/>
    </time>

    <report>
        <verbose value="true"/>
        <ignore-errors value="true"/>
        <no-step-log value="true"/>
    </report>

</duarouterConfiguration>
-->

    <vType id="res_bike_int1_bicycle" vClass="bicycle"/>
    <trip id="res_bike_int10" type="res_bike_int1_bicycle" depart="3601.00" departLane="best" departSpeed="max" from="E31" to="E18.410"/>
    <trip id="res_bike_int11" type="res_bike_int1_bicycle" depart="3660.98" departLane="best" departSpeed="max" from="E18" to="E18.410"/>
    <trip id="res_bike_int12" type="res_bike_int1_bicycle" depart="3720.97" departLane="best" departSpeed="max" from="E31" to="E30.558"/>
    <trip id="res_bike_int13" type="res_bike_int1_bicycle" depart="3780.95" departLane="best" departSpeed="max" from="E31" to="E18.410"/>
    <trip id="res_bike_int16" type="res_bike_int1_bicycle" depart="3960.90" departLane="best" departSpeed="max" from="E18" to="E18.410"/>
    <trip id="res_bike_int17" type="res_bike_int1_bicycle" depart="4020.88" departLane="best" departSpeed="max" from="E31" to="E30.558"/>
    <trip id="res_bike_int19" type="res_bike_int1_bicycle" depart="4140.85" departLane="best" departSpeed="max" from="E31" to="E18.410"/>
    <trip id="res_bike_int110" type="res_bike_int1_bicycle" depart="4200.83" departLane="best" departSpeed="max" from="E31" to="E30.558"/>
    <trip id="res_bike_int111" type="res_bike_int1_bicycle" depart="4260.82" departLane="best" departSpeed="max" from="E18" to="E18.410"/>
    <trip id="res_bike_int113" type="res_bike_int1_bicycle" depart="4380.78" departLane="best" departSpeed="max" from="E18" to="E18.410"/>
    <trip id="res_bike_int114" type="res_bike_int1_bicycle" depart="4440.77" departLane="best" departSpeed="max" from="E31" to="E30.558"/>
    <trip id="res_bike_int115" type="res_bike_int1_bicycle" depart="4500.75" departLane="best" departSpeed="max" from="E31" to="E30.558"/>
    <trip id="res_bike_int116" type="res_bike_int1_bicycle" depart="4560.73" departLane="best" departSpeed="max" from="E30" to="E31.622"/>
    <trip id="res_bike_int117" type="res_bike_int1_bicycle" depart="4620.72" departLane="best" departSpeed="max" from="E30" to="E30.558"/>
    <trip id="res_bike_int118" type="res_bike_int1_bicycle" depart="4680.70" departLane="best" departSpeed="max" from="E31" to="E30.558"/>
    <trip id="res_bike_int119" type="res_bike_int1_bicycle" depart="4740.68" departLane="best" departSpeed="max" from="E31" to="E30.558"/>
    <trip id="res_bike_int120" type="res_bike_int1_bicycle" depart="4800.67" departLane="best" departSpeed="max" from="E31" to="E18.410"/>
    <trip id="res_bike_int121" type="res_bike_int1_bicycle" depart="4860.65" departLane="best" departSpeed="max" from="E18" to="E22.488"/>
    <trip id="res_bike_int122" type="res_bike_int1_bicycle" depart="4920.63" departLane="best" departSpeed="max" from="E18" to="E18.410"/>
    <trip id="res_bike_int123" type="res_bike_int1_bicycle" depart="4980.62" departLane="best" departSpeed="max" from="E18" to="E22.488"/>
    <trip id="res_bike_int126" type="res_bike_int1_bicycle" depart="5160.57" departLane="best" departSpeed="max" from="E18" to="E31.622"/>
    <trip id="res_bike_int127" type="res_bike_int1_bicycle" depart="5220.55" departLane="best" departSpeed="max" from="E31" to="E30.558"/>
    <trip id="res_bike_int129" type="res_bike_int1_bicycle" depart="5340.52" departLane="best" departSpeed="max" from="E18" to="E22.488"/>
    <trip id="res_bike_int130" type="res_bike_int1_bicycle" depart="5400.50" departLane="best" departSpeed="max" from="E31" to="E30.558"/>
    <trip id="res_bike_int131" type="res_bike_int1_bicycle" depart="5460.48" departLane="best" departSpeed="max" from="E30" to="E30.558"/>
    <trip id="res_bike_int132" type="res_bike_int1_bicycle" depart="5520.47" departLane="best" departSpeed="max" from="E31" to="E31.622"/>
    <trip id="res_bike_int133" type="res_bike_int1_bicycle" depart="5580.45" departLane="best" departSpeed="max" from="E18" to="E18.410"/>
    <trip id="res_bike_int134" type="res_bike_int1_bicycle" depart="5640.43" departLane="best" departSpeed="max" from="E18" to="E22.488"/>
    <trip id="res_bike_int135" type="res_bike_int1_bicycle" depart="5700.42" departLane="best" departSpeed="max" from="E18" to="E31.622"/>
    <trip id="res_bike_int139" type="res_bike_int1_bicycle" depart="5940.35" departLane="best" departSpeed="max" from="E18" to="E18.410"/>
    <trip id="res_bike_int140" type="res_bike_int1_bicycle" depart="6000.33" departLane="best" departSpeed="max" from="E30" to="E22.488"/>
    <trip id="res_bike_int141" type="res_bike_int1_bicycle" depart="6060.32" departLane="best" departSpeed="max" from="E31" to="E31.622"/>
    <trip id="res_bike_int143" type="res_bike_int1_bicycle" depart="6180.28" departLane="best" departSpeed="max" from="E31" to="E30.558"/>
    <trip id="res_bike_int144" type="res_bike_int1_bicycle" depart="6240.27" departLane="best" departSpeed="max" from="E18" to="E18.410"/>
    <trip id="res_bike_int147" type="res_bike_int1_bicycle" depart="6420.22" departLane="best" departSpeed="max" from="E18" to="E22.488"/>
    <trip id="res_bike_int148" type="res_bike_int1_bicycle" depart="6480.20" departLane="best" departSpeed="max" from="E31" to="E30.558"/>
    <trip id="res_bike_int149" type="res_bike_int1_bicycle" depart="6540.18" departLane="best" departSpeed="max" from="E31" to="E31.622"/>
    <trip id="res_bike_int151" type="res_bike_int1_bicycle" depart="6660.15" departLane="best" departSpeed="max" from="E31" to="E30.558"/>
    <trip id="res_bike_int153" type="res_bike_int1_bicycle" depart="6780.12" departLane="best" departSpeed="max" from="E18" to="E22.488"/>
    <trip id="res_bike_int154" type="res_bike_int1_bicycle" depart="6840.10" departLane="best" departSpeed="max" from="E30" to="E31.622"/>
    <trip id="res_bike_int157" type="res_bike_int1_bicycle" depart="7020.05" departLane="best" departSpeed="max" from="E31" to="E31.622"/>
    <trip id="res_bike_int159" type="res_bike_int1_bicycle" depart="7140.02" departLane="best" departSpeed="max" from="E31" to="E18.410"/>

<!-- generated on 2025-08-19 18:12:43.150536 by randomTrips.py UNKNOWN
<configuration>
    <net-file value="osm.net.xml.gz"/>
    <weights-prefix value="random_edge_priority_interval_2"/>
    <output-trip-file value="osm.res_bike.interval_2.trips.xml"/>
    <route-file value="osm.res_bike.interval_2.rou.xml"/>
    <prefix value="res_bike_int2"/>
    <trip-attributes value="departLane=&quot;best&quot;"/>
    <fringe-start-attributes value="departSpeed=&quot;max&quot;"/>
    <vehicle-class value="bicycle"/>
    <vclass value="bicycle"/>
    <remove-loops value="True"/>
    <validate value="True"/>
    <verbose value="True"/>
    <begin value="722.0"/>
    <end value="1082.0"/>
    <insertion-rate value="300.0"/>
</configuration>
-->

<!-- generated on 2025-08-19 18:12:43 by Eclipse SUMO duarouter Version 1.22.0
<duarouterConfiguration xmlns:xsi="http://www.w3.org/2001/XMLSchema-instance" xsi:noNamespaceSchemaLocation="http://sumo.dlr.de/xsd/duarouterConfiguration.xsd">

    <input>
        <net-file value="osm.net.xml.gz"/>
        <route-files value="osm.res_bike.interval_2.trips.xml"/>
    </input>

    <output>
        <output-file value="osm.res_bike.interval_2.trips.xml.tmp"/>
        <alternatives-output value="NUL"/>
        <write-trips value="true"/>
    </output>

    <processing>
        <remove-loops value="true"/>
    </processing>

    <time>
        <begin value="722.0"/>
        <end value="1082.0"/>
    </time>

    <report>
        <verbose value="true"/>
        <ignore-errors value="true"/>
        <no-step-log value="true"/>
    </report>

</duarouterConfiguration>
-->

    <vType id="res_bike_int2_bicycle" vClass="bicycle"/>
    <trip id="res_bike_int20" type="res_bike_int2_bicycle" depart="722.00" departLane="best" departSpeed="max" from="E31" to="E18.410"/>
    <trip id="res_bike_int21" type="res_bike_int2_bicycle" depart="734.00" departLane="best" departSpeed="max" from="E18" to="E18.410"/>
    <trip id="res_bike_int22" type="res_bike_int2_bicycle" depart="746.00" departLane="best" departSpeed="max" from="E31" to="E30.558"/>
    <trip id="res_bike_int23" type="res_bike_int2_bicycle" depart="758.00" departLane="best" departSpeed="max" from="E31" to="E18.410"/>
    <trip id="res_bike_int26" type="res_bike_int2_bicycle" depart="794.00" departLane="best" departSpeed="max" from="E18" to="E18.410"/>
    <trip id="res_bike_int27" type="res_bike_int2_bicycle" depart="806.00" departLane="best" departSpeed="max" from="E31" to="E30.558"/>
    <trip id="res_bike_int29" type="res_bike_int2_bicycle" depart="830.00" departLane="best" departSpeed="max" from="E31" to="E18.410"/>
    <trip id="res_bike_int210" type="res_bike_int2_bicycle" depart="842.00" departLane="best" departSpeed="max" from="E31" to="E30.558"/>
    <trip id="res_bike_int211" type="res_bike_int2_bicycle" depart="854.00" departLane="best" departSpeed="max" from="E18" to="E18.410"/>
    <trip id="res_bike_int213" type="res_bike_int2_bicycle" depart="878.00" departLane="best" departSpeed="max" from="E18" to="E18.410"/>
    <trip id="res_bike_int214" type="res_bike_int2_bicycle" depart="890.00" departLane="best" departSpeed="max" from="E31" to="E30.558"/>
    <trip id="res_bike_int215" type="res_bike_int2_bicycle" depart="902.00" departLane="best" departSpeed="max" from="E31" to="E30.558"/>
    <trip id="res_bike_int216" type="res_bike_int2_bicycle" depart="914.00" departLane="best" departSpeed="max" from="E30" to="E31.622"/>
    <trip id="res_bike_int217" type="res_bike_int2_bicycle" depart="926.00" departLane="best" departSpeed="max" from="E30" to="E30.558"/>
    <trip id="res_bike_int218" type="res_bike_int2_bicycle" depart="938.00" departLane="best" departSpeed="max" from="E31" to="E30.558"/>
    <trip id="res_bike_int219" type="res_bike_int2_bicycle" depart="950.00" departLane="best" departSpeed="max" from="E31" to="E30.558"/>
    <trip id="res_bike_int220" type="res_bike_int2_bicycle" depart="962.00" departLane="best" departSpeed="max" from="E31" to="E18.410"/>
    <trip id="res_bike_int221" type="res_bike_int2_bicycle" depart="974.00" departLane="best" departSpeed="max" from="E18" to="E22.488"/>
    <trip id="res_bike_int222" type="res_bike_int2_bicycle" depart="986.00" departLane="best" departSpeed="max" from="E18" to="E18.410"/>
    <trip id="res_bike_int223" type="res_bike_int2_bicycle" depart="998.00" departLane="best" departSpeed="max" from="E18" to="E22.488"/>
    <trip id="res_bike_int226" type="res_bike_int2_bicycle" depart="1034.00" departLane="best" departSpeed="max" from="E18" to="E31.622"/>
    <trip id="res_bike_int227" type="res_bike_int2_bicycle" depart="1046.00" departLane="best" departSpeed="max" from="E31" to="E30.558"/>
    <trip id="res_bike_int229" type="res_bike_int2_bicycle" depart="1070.00" departLane="best" departSpeed="max" from="E18" to="E22.488"/>

<!-- generated on 2025-08-19 18:12:43.976618 by randomTrips.py UNKNOWN
<configuration>
    <net-file value="osm.net.xml.gz"/>
    <weights-prefix value="random_edge_priority_interval_3"/>
    <output-trip-file value="osm.res_bike.interval_3.trips.xml"/>
    <route-file value="osm.res_bike.interval_3.rou.xml"/>
    <prefix value="res_bike_int3"/>
    <trip-attributes value="departLane=&quot;best&quot;"/>
    <fringe-start-attributes value="departSpeed=&quot;max&quot;"/>
    <vehicle-class value="bicycle"/>
    <vclass value="bicycle"/>
    <remove-loops value="True"/>
    <validate value="True"/>
    <verbose value="True"/>
    <begin value="1083.0"/>
    <end value="1443.0"/>
    <insertion-rate value="300.0"/>
</configuration>
-->

<!-- generated on 2025-08-19 18:12:43 by Eclipse SUMO duarouter Version 1.22.0
<duarouterConfiguration xmlns:xsi="http://www.w3.org/2001/XMLSchema-instance" xsi:noNamespaceSchemaLocation="http://sumo.dlr.de/xsd/duarouterConfiguration.xsd">

    <input>
        <net-file value="osm.net.xml.gz"/>
        <route-files value="osm.res_bike.interval_3.trips.xml"/>
    </input>

    <output>
        <output-file value="osm.res_bike.interval_3.trips.xml.tmp"/>
        <alternatives-output value="NUL"/>
        <write-trips value="true"/>
    </output>

    <processing>
        <remove-loops value="true"/>
    </processing>

    <time>
        <begin value="1083.0"/>
        <end value="1443.0"/>
    </time>

    <report>
        <verbose value="true"/>
        <ignore-errors value="true"/>
        <no-step-log value="true"/>
    </report>

</duarouterConfiguration>
-->

    <vType id="res_bike_int3_bicycle" vClass="bicycle"/>
    <trip id="res_bike_int30" type="res_bike_int3_bicycle" depart="1083.00" departLane="best" departSpeed="max" from="E22" to="E18.410"/>
    <trip id="res_bike_int31" type="res_bike_int3_bicycle" depart="1095.00" departLane="best" departSpeed="max" from="E18" to="E18.410"/>
    <trip id="res_bike_int32" type="res_bike_int3_bicycle" depart="1107.00" departLane="best" departSpeed="max" from="E30" to="E30.558"/>
    <trip id="res_bike_int33" type="res_bike_int3_bicycle" depart="1119.00" departLane="best" departSpeed="max" from="E31" to="E18.410"/>
    <trip id="res_bike_int34" type="res_bike_int3_bicycle" depart="1131.00" departLane="best" departSpeed="max" from="E18" to="E18.410"/>
    <trip id="res_bike_int36" type="res_bike_int3_bicycle" depart="1155.00" departLane="best" departSpeed="max" from="E18" to="E18.410"/>
    <trip id="res_bike_int37" type="res_bike_int3_bicycle" depart="1167.00" departLane="best" departSpeed="max" from="E22" to="E30.558"/>
    <trip id="res_bike_int310" type="res_bike_int3_bicycle" depart="1203.00" departLane="best" departSpeed="max" from="E30" to="E30.558"/>
    <trip id="res_bike_int311" type="res_bike_int3_bicycle" depart="1215.00" departLane="best" departSpeed="max" from="E18" to="E18.410"/>
    <trip id="res_bike_int313" type="res_bike_int3_bicycle" depart="1239.00" departLane="best" departSpeed="max" from="E18" to="E18.410"/>
    <trip id="res_bike_int314" type="res_bike_int3_bicycle" depart="1251.00" departLane="best" departSpeed="max" from="E31" to="E30.558"/>
    <trip id="res_bike_int315" type="res_bike_int3_bicycle" depart="1263.00" departLane="best" departSpeed="max" from="E30" to="E30.558"/>
    <trip id="res_bike_int318" type="res_bike_int3_bicycle" depart="1299.00" departLane="best" departSpeed="max" from="E31" to="E30.558"/>
    <trip id="res_bike_int319" type="res_bike_int3_bicycle" depart="1311.00" departLane="best" departSpeed="max" from="E31" to="E30.558"/>
    <trip id="res_bike_int321" type="res_bike_int3_bicycle" depart="1335.00" departLane="best" departSpeed="max" from="E18" to="E22.488"/>
    <trip id="res_bike_int322" type="res_bike_int3_bicycle" depart="1347.00" departLane="best" departSpeed="max" from="E18" to="E18.410"/>
    <trip id="res_bike_int323" type="res_bike_int3_bicycle" depart="1359.00" departLane="best" departSpeed="max" from="E18" to="E22.488"/>
    <trip id="res_bike_int324" type="res_bike_int3_bicycle" depart="1371.00" departLane="best" departSpeed="max" from="E22" to="E22.488"/>
    <trip id="res_bike_int325" type="res_bike_int3_bicycle" depart="1383.00" departLane="best" departSpeed="max" from="E18" to="E18.410"/>
    <trip id="res_bike_int326" type="res_bike_int3_bicycle" depart="1395.00" departLane="best" departSpeed="max" from="E18" to="E31.622"/>
    <trip id="res_bike_int327" type="res_bike_int3_bicycle" depart="1407.00" departLane="best" departSpeed="max" from="E22" to="E30.558"/>
    <trip id="res_bike_int329" type="res_bike_int3_bicycle" depart="1431.00" departLane="best" departSpeed="max" from="E18" to="E22.488"/>

<!-- generated on 2025-08-19 18:12:44.694455 by randomTrips.py UNKNOWN
<configuration>
    <net-file value="osm.net.xml.gz"/>
    <weights-prefix value="random_edge_priority_interval_4"/>
    <output-trip-file value="osm.res_bike.interval_4.trips.xml"/>
    <route-file value="osm.res_bike.interval_4.rou.xml"/>
    <prefix value="res_bike_int4"/>
    <trip-attributes value="departLane=&quot;best&quot;"/>
    <fringe-start-attributes value="departSpeed=&quot;max&quot;"/>
    <vehicle-class value="bicycle"/>
    <vclass value="bicycle"/>
    <remove-loops value="True"/>
    <validate value="True"/>
    <verbose value="True"/>
    <begin value="1444.0"/>
    <end value="1804.0"/>
    <insertion-rate value="300.0"/>
</configuration>
-->

<!-- generated on 2025-08-19 18:12:44 by Eclipse SUMO duarouter Version 1.22.0
<duarouterConfiguration xmlns:xsi="http://www.w3.org/2001/XMLSchema-instance" xsi:noNamespaceSchemaLocation="http://sumo.dlr.de/xsd/duarouterConfiguration.xsd">

    <input>
        <net-file value="osm.net.xml.gz"/>
        <route-files value="osm.res_bike.interval_4.trips.xml"/>
    </input>

    <output>
        <output-file value="osm.res_bike.interval_4.trips.xml.tmp"/>
        <alternatives-output value="NUL"/>
        <write-trips value="true"/>
    </output>

    <processing>
        <remove-loops value="true"/>
    </processing>

    <time>
        <begin value="1444.0"/>
        <end value="1804.0"/>
    </time>

    <report>
        <verbose value="true"/>
        <ignore-errors value="true"/>
        <no-step-log value="true"/>
    </report>

</duarouterConfiguration>
-->

    <vType id="res_bike_int4_bicycle" vClass="bicycle"/>
    <trip id="res_bike_int41" type="res_bike_int4_bicycle" depart="1456.00" departLane="best" departSpeed="max" from="E22" to="E18.410"/>
    <trip id="res_bike_int42" type="res_bike_int4_bicycle" depart="1468.00" departLane="best" departSpeed="max" from="E31" to="E30.558"/>
    <trip id="res_bike_int43" type="res_bike_int4_bicycle" depart="1480.00" departLane="best" departSpeed="max" from="E31" to="E18.410"/>
    <trip id="res_bike_int45" type="res_bike_int4_bicycle" depart="1504.00" departLane="best" departSpeed="max" from="E22" to="E30.558"/>
    <trip id="res_bike_int46" type="res_bike_int4_bicycle" depart="1516.00" departLane="best" departSpeed="max" from="E18" to="E18.410"/>
    <trip id="res_bike_int47" type="res_bike_int4_bicycle" depart="1528.00" departLane="best" departSpeed="max" from="E31" to="E30.558"/>
    <trip id="res_bike_int48" type="res_bike_int4_bicycle" depart="1540.00" departLane="best" departSpeed="max" from="E22" to="E30.558"/>
    <trip id="res_bike_int49" type="res_bike_int4_bicycle" depart="1552.00" departLane="best" departSpeed="max" from="E31" to="E18.410"/>
    <trip id="res_bike_int410" type="res_bike_int4_bicycle" depart="1564.00" departLane="best" departSpeed="max" from="E31" to="E30.558"/>
    <trip id="res_bike_int411" type="res_bike_int4_bicycle" depart="1576.00" departLane="best" departSpeed="max" from="E22" to="E18.410"/>
    <trip id="res_bike_int413" type="res_bike_int4_bicycle" depart="1600.00" departLane="best" departSpeed="max" from="E18" to="E18.410"/>
    <trip id="res_bike_int414" type="res_bike_int4_bicycle" depart="1612.00" departLane="best" departSpeed="max" from="E31" to="E30.558"/>
    <trip id="res_bike_int415" type="res_bike_int4_bicycle" depart="1624.00" departLane="best" departSpeed="max" from="E31" to="E30.558"/>
    <trip id="res_bike_int416" type="res_bike_int4_bicycle" depart="1636.00" departLane="best" departSpeed="max" from="E30" to="E31.622"/>
    <trip id="res_bike_int417" type="res_bike_int4_bicycle" depart="1648.00" departLane="best" departSpeed="max" from="E30" to="E30.558"/>
    <trip id="res_bike_int418" type="res_bike_int4_bicycle" depart="1660.00" departLane="best" departSpeed="max" from="E31" to="E30.558"/>
    <trip id="res_bike_int419" type="res_bike_int4_bicycle" depart="1672.00" departLane="best" departSpeed="max" from="E31" to="E30.558"/>
    <trip id="res_bike_int420" type="res_bike_int4_bicycle" depart="1684.00" departLane="best" departSpeed="max" from="E31" to="E18.410"/>
    <trip id="res_bike_int421" type="res_bike_int4_bicycle" depart="1696.00" departLane="best" departSpeed="max" from="E22" to="E22.488"/>
    <trip id="res_bike_int422" type="res_bike_int4_bicycle" depart="1708.00" departLane="best" departSpeed="max" from="E18" to="E18.410"/>
    <trip id="res_bike_int423" type="res_bike_int4_bicycle" depart="1720.00" departLane="best" departSpeed="max" from="E18" to="E22.488"/>
    <trip id="res_bike_int424" type="res_bike_int4_bicycle" depart="1732.00" departLane="best" departSpeed="max" from="E30" to="E22.488"/>
    <trip id="res_bike_int427" type="res_bike_int4_bicycle" depart="1768.00" departLane="best" departSpeed="max" from="E31" to="E30.558"/>
    <trip id="res_bike_int429" type="res_bike_int4_bicycle" depart="1792.00" departLane="best" departSpeed="max" from="E18" to="E22.488"/>

<!-- generated on 2025-08-19 18:12:45.426481 by randomTrips.py UNKNOWN
<configuration>
    <net-file value="osm.net.xml.gz"/>
    <weights-prefix value="random_edge_priority_interval_5"/>
    <output-trip-file value="osm.res_bike.interval_5.trips.xml"/>
    <route-file value="osm.res_bike.interval_5.rou.xml"/>
    <prefix value="res_bike_int5"/>
    <trip-attributes value="departLane=&quot;best&quot;"/>
    <fringe-start-attributes value="departSpeed=&quot;max&quot;"/>
    <vehicle-class value="bicycle"/>
    <vclass value="bicycle"/>
    <remove-loops value="True"/>
    <validate value="True"/>
    <verbose value="True"/>
    <begin value="1805.0"/>
    <end value="2165.0"/>
    <insertion-rate value="300.0"/>
</configuration>
-->

<!-- generated on 2025-08-19 18:12:45 by Eclipse SUMO duarouter Version 1.22.0
<duarouterConfiguration xmlns:xsi="http://www.w3.org/2001/XMLSchema-instance" xsi:noNamespaceSchemaLocation="http://sumo.dlr.de/xsd/duarouterConfiguration.xsd">

    <input>
        <net-file value="osm.net.xml.gz"/>
        <route-files value="osm.res_bike.interval_5.trips.xml"/>
    </input>

    <output>
        <output-file value="osm.res_bike.interval_5.trips.xml.tmp"/>
        <alternatives-output value="NUL"/>
        <write-trips value="true"/>
    </output>

    <processing>
        <remove-loops value="true"/>
    </processing>

    <time>
        <begin value="1805.0"/>
        <end value="2165.0"/>
    </time>

    <report>
        <verbose value="true"/>
        <ignore-errors value="true"/>
        <no-step-log value="true"/>
    </report>

</duarouterConfiguration>
-->

    <vType id="res_bike_int5_bicycle" vClass="bicycle"/>
    <trip id="res_bike_int51" type="res_bike_int5_bicycle" depart="1817.00" departLane="best" departSpeed="max" from="E18" to="E18.410"/>
    <trip id="res_bike_int52" type="res_bike_int5_bicycle" depart="1829.00" departLane="best" departSpeed="max" from="E30" to="E30.558"/>
    <trip id="res_bike_int54" type="res_bike_int5_bicycle" depart="1853.00" departLane="best" departSpeed="max" from="E22" to="E18.410"/>
    <trip id="res_bike_int56" type="res_bike_int5_bicycle" depart="1877.00" departLane="best" departSpeed="max" from="E18" to="E18.410"/>
    <trip id="res_bike_int57" type="res_bike_int5_bicycle" depart="1889.00" departLane="best" departSpeed="max" from="E30" to="E30.558"/>
    <trip id="res_bike_int510" type="res_bike_int5_bicycle" depart="1925.00" departLane="best" departSpeed="max" from="E30" to="E30.558"/>
    <trip id="res_bike_int511" type="res_bike_int5_bicycle" depart="1937.00" departLane="best" departSpeed="max" from="E22" to="E18.410"/>
    <trip id="res_bike_int512" type="res_bike_int5_bicycle" depart="1949.00" departLane="best" departSpeed="max" from="E30" to="E22.488"/>
    <trip id="res_bike_int513" type="res_bike_int5_bicycle" depart="1961.00" departLane="best" departSpeed="max" from="E18" to="E18.410"/>
    <trip id="res_bike_int514" type="res_bike_int5_bicycle" depart="1973.00" departLane="best" departSpeed="max" from="E30" to="E30.558"/>