<?xml version="1.0" encoding="UTF-8"?>

<!-- generated on 2025-07-30 17:24:52.330275 by randomTrips.py v1_23_1+0000-676720d13f6
<configuration>
    <net-file value="osm.net.xml.gz"/>
    <weights-prefix value="random_edge_priority_interval_4"/>
    <output-trip-file value="osm.res_motorcycle.interval_4.trips.xml"/>
    <prefix value="res_motorcycle_int4"/>
    <trip-attributes value="departLane='best'"/>
    <fringe-start-attributes value="departSpeed='max'"/>
    <vehicle-class value="motorcycle"/>
    <vclass value="motorcycle"/>
    <remove-loops value="True"/>
    <validate value="True"/>
    <begin value="1444.0"/>
    <end value="1804.0"/>
    <insertion-rate value="1500.0"/>
</configuration>
-->

<!-- generated on 2025-07-30 17:24:52 by Eclipse SUMO duarouter Version 1.23.1
<duarouterConfiguration xmlns:xsi="http://www.w3.org/2001/XMLSchema-instance" xsi:noNamespaceSchemaLocation="http://sumo.dlr.de/xsd/duarouterConfiguration.xsd">

    <input>
        <net-file value="osm.net.xml.gz"/>
        <route-files value="osm.res_motorcycle.interval_4.trips.xml"/>
    </input>

    <output>
        <output-file value="osm.res_motorcycle.interval_4.trips.xml.tmp"/>
        <alternatives-output value="NUL"/>
        <write-trips value="true"/>
    </output>

    <processing>
        <remove-loops value="true"/>
    </processing>

    <time>
        <begin value="1444.0"/>
        <end value="1804.0"/>
    </time>

    <report>
        <no-warnings value="true"/>
        <ignore-errors value="true"/>
        <no-step-log value="true"/>
    </report>

</duarouterConfiguration>
-->

<routes xmlns:xsi="http://www.w3.org/2001/XMLSchema-instance" xsi:noNamespaceSchemaLocation="http://sumo.dlr.de/xsd/routes_file.xsd">
    <vType id="res_motorcycle_int4_motorcycle" vClass="motorcycle"/>
    <trip id="res_motorcycle_int41" type="res_motorcycle_int4_motorcycle" depart="1446.40" departLane="best" departSpeed="max" from="E22" to="E18.410"/>
    <trip id="res_motorcycle_int42" type="res_motorcycle_int4_motorcycle" depart="1448.80" departLane="best" departSpeed="max" from="E30" to="E30.558"/>
    <trip id="res_motorcycle_int43" type="res_motorcycle_int4_motorcycle" depart="1451.20" departLane="best" departSpeed="max" from="E31" to="E18.410"/>
    <trip id="res_motorcycle_int44" type="res_motorcycle_int4_motorcycle" depart="1453.60" departLane="best" departSpeed="max" from="E22" to="E18.410"/>
    <trip id="res_motorcycle_int46" type="res_motorcycle_int4_motorcycle" depart="1458.40" departLane="best" departSpeed="max" from="E18" to="E18.410"/>
    <trip id="res_motorcycle_int47" type="res_motorcycle_int4_motorcycle" depart="1460.80" departLane="best" departSpeed="max" from="E30" to="E30.558"/>
    <trip id="res_motorcycle_int49" type="res_motorcycle_int4_motorcycle" depart="1465.60" departLane="best" departSpeed="max" from="E31" to="E18.410"/>
    <trip id="res_motorcycle_int410" type="res_motorcycle_int4_motorcycle" depart="1468.00" departLane="best" departSpeed="max" from="E31" to="E30.558"/>
    <trip id="res_motorcycle_int411" type="res_motorcycle_int4_motorcycle" depart="1470.40" departLane="best" departSpeed="max" from="E22" to="E18.410"/>
    <trip id="res_motorcycle_int413" type="res_motorcycle_int4_motorcycle" depart="1475.20" departLane="best" departSpeed="max" from="E18" to="E18.410"/>
    <trip id="res_motorcycle_int414" type="res_motorcycle_int4_motorcycle" depart="1477.60" departLane="best" departSpeed="max" from="E31" to="E30.558"/>
    <trip id="res_motorcycle_int415" type="res_motorcycle_int4_motorcycle" depart="1480.00" departLane="best" departSpeed="max" from="E31" to="E30.558"/>
    <trip id="res_motorcycle_int416" type="res_motorcycle_int4_motorcycle" depart="1482.40" departLane="best" departSpeed="max" from="E30" to="E31.622"/>
    <trip id="res_motorcycle_int417" type="res_motorcycle_int4_motorcycle" depart="1484.80" departLane="best" departSpeed="max" from="E22" to="E30.558"/>
    <trip id="res_motorcycle_int418" type="res_motorcycle_int4_motorcycle" depart="1487.20" departLane="best" departSpeed="max" from="E31" to="E30.558"/>
    <trip id="res_motorcycle_int419" type="res_motorcycle_int4_motorcycle" depart="1489.60" departLane="best" departSpeed="max" from="E31" to="E30.558"/>
    <trip id="res_motorcycle_int421" type="res_motorcycle_int4_motorcycle" depart="1494.40" departLane="best" departSpeed="max" from="E18" to="E22.488"/>
    <trip id="res_motorcycle_int422" type="res_motorcycle_int4_motorcycle" depart="1496.80" departLane="best" departSpeed="max" from="E18" to="E18.410"/>
    <trip id="res_motorcycle_int423" type="res_motorcycle_int4_motorcycle" depart="1499.20" departLane="best" departSpeed="max" from="E18" to="E22.488"/>
    <trip id="res_motorcycle_int424" type="res_motorcycle_int4_motorcycle" depart="1501.60" departLane="best" departSpeed="max" from="E30" to="E22.488"/>
    <trip id="res_motorcycle_int425" type="res_motorcycle_int4_motorcycle" depart="1504.00" departLane="best" departSpeed="max" from="E22" to="E18.410"/>
    <trip id="res_motorcycle_int427" type="res_motorcycle_int4_motorcycle" depart="1508.80" departLane="best" departSpeed="max" from="E30" to="E30.558"/>
    <trip id="res_motorcycle_int429" type="res_motorcycle_int4_motorcycle" depart="1513.60" departLane="best" departSpeed="max" from="E18" to="E22.488"/>
    <trip id="res_motorcycle_int430" type="res_motorcycle_int4_motorcycle" depart="1516.00" departLane="best" departSpeed="max" from="E31" to="E30.558"/>
    <trip id="res_motorcycle_int431" type="res_motorcycle_int4_motorcycle" depart="1518.40" departLane="best" departSpeed="max" from="E30" to="E30.558"/>
    <trip id="res_motorcycle_int432" type="res_motorcycle_int4_motorcycle" depart="1520.80" departLane="best" departSpeed="max" from="E31" to="E31.622"/>
    <trip id="res_motorcycle_int433" type="res_motorcycle_int4_motorcycle" depart="1523.20" departLane="best" departSpeed="max" from="E18" to="E18.410"/>
    <trip id="res_motorcycle_int434" type="res_motorcycle_int4_motorcycle" depart="1525.60" departLane="best" departSpeed="max" from="E22" to="E22.488"/>
    <trip id="res_motorcycle_int435" type="res_motorcycle_int4_motorcycle" depart="1528.00" departLane="best" departSpeed="max" from="E18" to="E31.622"/>
    <trip id="res_motorcycle_int437" type="res_motorcycle_int4_motorcycle" depart="1532.80" departLane="best" departSpeed="max" from="E30" to="E22.488"/>
    <trip id="res_motorcycle_int439" type="res_motorcycle_int4_motorcycle" depart="1537.60" departLane="best" departSpeed="max" from="E22" to="E18.410"/>
    <trip id="res_motorcycle_int440" type="res_motorcycle_int4_motorcycle" depart="1540.00" departLane="best" departSpeed="max" from="E30" to="E22.488"/>
    <trip id="res_motorcycle_int441" type="res_motorcycle_int4_motorcycle" depart="1542.40" departLane="best" departSpeed="max" from="E30" to="E31.622"/>
    <trip id="res_motorcycle_int442" type="res_motorcycle_int4_motorcycle" depart="1544.80" departLane="best" departSpeed="max" from="E22" to="E18.410"/>
    <trip id="res_motorcycle_int443" type="res_motorcycle_int4_motorcycle" depart="1547.20" departLane="best" departSpeed="max" from="E31" to="E30.558"/>
    <trip id="res_motorcycle_int444" type="res_motorcycle_int4_motorcycle" depart="1549.60" departLane="best" departSpeed="max" from="E18" to="E18.410"/>
    <trip id="res_motorcycle_int447" type="res_motorcycle_int4_motorcycle" depart="1556.80" departLane="best" departSpeed="max" from="E18" to="E22.488"/>
    <trip id="res_motorcycle_int448" type="res_motorcycle_int4_motorcycle" depart="1559.20" departLane="best" departSpeed="max" from="E31" to="E30.558"/>
    <trip id="res_motorcycle_int449" type="res_motorcycle_int4_motorcycle" depart="1561.60" departLane="best" departSpeed="max" from="E31" to="E31.622"/>
    <trip id="res_motorcycle_int451" type="res_motorcycle_int4_motorcycle" depart="1566.40" departLane="best" departSpeed="max" from="E30" to="E30.558"/>
    <trip id="res_motorcycle_int452" type="res_motorcycle_int4_motorcycle" depart="1568.80" departLane="best" departSpeed="max" from="E22" to="E30.558"/>
    <trip id="res_motorcycle_int453" type="res_motorcycle_int4_motorcycle" depart="1571.20" departLane="best" departSpeed="max" from="E18" to="E22.488"/>
    <trip id="res_motorcycle_int457" type="res_motorcycle_int4_motorcycle" depart="1580.80" departLane="best" departSpeed="max" from="E31" to="E31.622"/>
    <trip id="res_motorcycle_int458" type="res_motorcycle_int4_motorcycle" depart="1583.20" departLane="best" departSpeed="max" from="E22" to="E30.558"/>
    <trip id="res_motorcycle_int460" type="res_motorcycle_int4_motorcycle" depart="1588.00" departLane="best" departSpeed="max" from="E31" to="E30.558"/>
    <trip id="res_motorcycle_int461" type="res_motorcycle_int4_motorcycle" depart="1590.40" departLane="best" departSpeed="max" from="E31" to="E30.558"/>
    <trip id="res_motorcycle_int462" type="res_motorcycle_int4_motorcycle" depart="1592.80" departLane="best" departSpeed="max" from="E18" to="E22.488"/>
    <trip id="res_motorcycle_int463" type="res_motorcycle_int4_motorcycle" depart="1595.20" departLane="best" departSpeed="max" from="E18" to="E31.622"/>
    <trip id="res_motorcycle_int464" type="res_motorcycle_int4_motorcycle" depart="1597.60" departLane="best" departSpeed="max" from="E31" to="E31.622"/>
    <trip id="res_motorcycle_int465" type="res_motorcycle_int4_motorcycle" depart="1600.00" departLane="best" departSpeed="max" from="E22" to="E18.410"/>
    <trip id="res_motorcycle_int466" type="res_motorcycle_int4_motorcycle" depart="1602.40" departLane="best" departSpeed="max" from="E31" to="E31.622"/>
    <trip id="res_motorcycle_int467" type="res_motorcycle_int4_motorcycle" depart="1604.80" departLane="best" departSpeed="max" from="E18" to="E22.488"/>
    <trip id="res_motorcycle_int468" type="res_motorcycle_int4_motorcycle" depart="1607.20" departLane="best" departSpeed="max" from="E18" to="E31.622"/>
    <trip id="res_motorcycle_int469" type="res_motorcycle_int4_motorcycle" depart="1609.60" departLane="best" departSpeed="max" from="E31" to="E18.410"/>
    <trip id="res_motorcycle_int470" type="res_motorcycle_int4_motorcycle" depart="1612.00" departLane="best" departSpeed="max" from="E22" to="E30.558"/>
    <trip id="res_motorcycle_int472" type="res_motorcycle_int4_motorcycle" depart="1616.80" departLane="best" departSpeed="max" from="E22" to="E18.410"/>
    <trip id="res_motorcycle_int473" type="res_motorcycle_int4_motorcycle" depart="1619.20" departLane="best" departSpeed="max" from="E30" to="E30.558"/>
    <trip id="res_motorcycle_int474" type="res_motorcycle_int4_motorcycle" depart="1621.60" departLane="best" departSpeed="max" from="E18" to="E22.488"/>
    <trip id="res_motorcycle_int475" type="res_motorcycle_int4_motorcycle" depart="1624.00" departLane="best" departSpeed="max" from="E31" to="E30.558"/>
    <trip id="res_motorcycle_int476" type="res_motorcycle_int4_motorcycle" depart="1626.40" departLane="best" departSpeed="max" from="E22" to="E30.558"/>
    <trip id="res_motorcycle_int477" type="res_motorcycle_int4_motorcycle" depart="1628.80" departLane="best" departSpeed="max" from="E18" to="E18.410"/>
    <trip id="res_motorcycle_int478" type="res_motorcycle_int4_motorcycle" depart="1631.20" departLane="best" departSpeed="max" from="E22" to="E30.558"/>
    <trip id="res_motorcycle_int479" type="res_motorcycle_int4_motorcycle" depart="1633.60" departLane="best" departSpeed="max" from="E18" to="E18.410"/>
    <trip id="res_motorcycle_int481" type="res_motorcycle_int4_motorcycle" depart="1638.40" departLane="best" departSpeed="max" from="E18" to="E31.622"/>
    <trip id="res_motorcycle_int482" type="res_motorcycle_int4_motorcycle" depart="1640.80" departLane="best" departSpeed="max" from="E31" to="E18.410"/>
    <trip id="res_motorcycle_int484" type="res_motorcycle_int4_motorcycle" depart="1645.60" departLane="best" departSpeed="max" from="E18" to="E18.410"/>
    <trip id="res_motorcycle_int485" type="res_motorcycle_int4_motorcycle" depart="1648.00" departLane="best" departSpeed="max" from="E31" to="E30.558"/>
    <trip id="res_motorcycle_int487" type="res_motorcycle_int4_motorcycle" depart="1652.80" departLane="best" departSpeed="max" from="E31" to="E18.410"/>
    <trip id="res_motorcycle_int488" type="res_motorcycle_int4_motorcycle" depart="1655.20" departLane="best" departSpeed="max" from="E18" to="E22.488"/>
    <trip id="res_motorcycle_int489" type="res_motorcycle_int4_motorcycle" depart="1657.60" departLane="best" departSpeed="max" from="E22" to="E22.488"/>
    <trip id="res_motorcycle_int490" type="res_motorcycle_int4_motorcycle" depart="1660.00" departLane="best" departSpeed="max" from="E30" to="E30.558"/>
    <trip id="res_motorcycle_int491" type="res_motorcycle_int4_motorcycle" depart="1662.40" departLane="best" departSpeed="max" from="E31" to="E18.410"/>
    <trip id="res_motorcycle_int492" type="res_motorcycle_int4_motorcycle" depart="1664.80" departLane="best" departSpeed="max" from="E22" to="E22.488"/>
    <trip id="res_motorcycle_int493" type="res_motorcycle_int4_motorcycle" depart="1667.20" departLane="best" departSpeed="max" from="E31" to="E18.410"/>
    <trip id="res_motorcycle_int494" type="res_motorcycle_int4_motorcycle" depart="1669.60" departLane="best" departSpeed="max" from="E18" to="E22.488"/>
    <trip id="res_motorcycle_int495" type="res_motorcycle_int4_motorcycle" depart="1672.00" departLane="best" departSpeed="max" from="E22" to="E22.488"/>
    <trip id="res_motorcycle_int496" type="res_motorcycle_int4_motorcycle" depart="1674.40" departLane="best" departSpeed="max" from="E18" to="E31.622"/>
    <trip id="res_motorcycle_int499" type="res_motorcycle_int4_motorcycle" depart="1681.60" departLane="best" departSpeed="max" from="E31" to="E31.622"/>
    <trip id="res_motorcycle_int4100" type="res_motorcycle_int4_motorcycle" depart="1684.00" departLane="best" departSpeed="max" from="E31" to="E31.622"/>
    <trip id="res_motorcycle_int4101" type="res_motorcycle_int4_motorcycle" depart="1686.40" departLane="best" departSpeed="max" from="E31" to="E18.410"/>
    <trip id="res_motorcycle_int4102" type="res_motorcycle_int4_motorcycle" depart="1688.80" departLane="best" departSpeed="max" from="E22" to="E18.410"/>
    <trip id="res_motorcycle_int4103" type="res_motorcycle_int4_motorcycle" depart="1691.20" departLane="best" departSpeed="max" from="E22" to="E18.410"/>
    <trip id="res_motorcycle_int4106" type="res_motorcycle_int4_motorcycle" depart="1698.40" departLane="best" departSpeed="max" from="E22" to="E22.488"/>
    <trip id="res_motorcycle_int4107" type="res_motorcycle_int4_motorcycle" depart="1700.80" departLane="best" departSpeed="max" from="E31" to="E31.622"/>
    <trip id="res_motorcycle_int4108" type="res_motorcycle_int4_motorcycle" depart="1703.20" departLane="best" departSpeed="max" from="E30" to="E30.558"/>
    <trip id="res_motorcycle_int4109" type="res_motorcycle_int4_motorcycle" depart="1705.60" departLane="best" departSpeed="max" from="E18" to="E22.488"/>
    <trip id="res_motorcycle_int4110" type="res_motorcycle_int4_motorcycle" depart="1708.00" departLane="best" departSpeed="max" from="E31" to="E30.558"/>
    <trip id="res_motorcycle_int4111" type="res_motorcycle_int4_motorcycle" depart="1710.40" departLane="best" departSpeed="max" from="E30" to="E30.558"/>
    <trip id="res_motorcycle_int4113" type="res_motorcycle_int4_motorcycle" depart="1715.20" departLane="best" departSpeed="max" from="E30" to="E31.622"/>
    <trip id="res_motorcycle_int4114" type="res_motorcycle_int4_motorcycle" depart="1717.60" departLane="best" departSpeed="max" from="E18" to="E31.622"/>
    <trip id="res_motorcycle_int4115" type="res_motorcycle_int4_motorcycle" depart="1720.00" departLane="best" departSpeed="max" from="E18" to="E18.410"/>
    <trip id="res_motorcycle_int4116" type="res_motorcycle_int4_motorcycle" depart="1722.40" departLane="best" departSpeed="max" from="E30" to="E30.558"/>
    <trip id="res_motorcycle_int4117" type="res_motorcycle_int4_motorcycle" depart="1724.80" departLane="best" departSpeed="max" from="E18" to="E18.410"/>
    <trip id="res_motorcycle_int4118" type="res_motorcycle_int4_motorcycle" depart="1727.20" departLane="best" departSpeed="max" from="E31" to="E18.410"/>
    <trip id="res_motorcycle_int4119" type="res_motorcycle_int4_motorcycle" depart="1729.60" departLane="best" departSpeed="max" from="E30" to="E30.558"/>
    <trip id="res_motorcycle_int4120" type="res_motorcycle_int4_motorcycle" depart="1732.00" departLane="best" departSpeed="max" from="E22" to="E30.558"/>
    <trip id="res_motorcycle_int4121" type="res_motorcycle_int4_motorcycle" depart="1734.40" departLane="best" departSpeed="max" from="E30" to="E31.622"/>
    <trip id="res_motorcycle_int4123" type="res_motorcycle_int4_motorcycle" depart="1739.20" departLane="best" departSpeed="max" from="E18" to="E22.488"/>
    <trip id="res_motorcycle_int4124" type="res_motorcycle_int4_motorcycle" depart="1741.60" departLane="best" departSpeed="max" from="E30" to="E22.488"/>
    <trip id="res_motorcycle_int4126" type="res_motorcycle_int4_motorcycle" depart="1746.40" departLane="best" departSpeed="max" from="E18" to="E22.488"/>
    <trip id="res_motorcycle_int4127" type="res_motorcycle_int4_motorcycle" depart="1748.80" departLane="best" departSpeed="max" from="E31" to="E31.622"/>
    <trip id="res_motorcycle_int4128" type="res_motorcycle_int4_motorcycle" depart="1751.20" departLane="best" departSpeed="max" from="E18" to="E18.410"/>
    <trip id="res_motorcycle_int4130" type="res_motorcycle_int4_motorcycle" depart="1756.00" departLane="best" departSpeed="max" from="E31" to="E31.622"/>
    <trip id="res_motorcycle_int4131" type="res_motorcycle_int4_motorcycle" depart="1758.40" departLane="best" departSpeed="max" from="E22" to="E18.410"/>
    <trip id="res_motorcycle_int4132" type="res_motorcycle_int4_motorcycle" depart="1760.80" departLane="best" departSpeed="max" from="E31" to="E30.558"/>
    <trip id="res_motorcycle_int4133" type="res_motorcycle_int4_motorcycle" depart="1763.20" departLane="best" departSpeed="max" from="E30" to="E31.622"/>
    <trip id="res_motorcycle_int4136" type="res_motorcycle_int4_motorcycle" depart="1770.40" departLane="best" departSpeed="max" from="E30" to="E31.622"/>
    <trip id="res_motorcycle_int4137" type="res_motorcycle_int4_motorcycle" depart="1772.80" departLane="best" departSpeed="max" from="E18" to="E18.410"/>
    <trip id="res_motorcycle_int4139" type="res_motorcycle_int4_motorcycle" depart="1777.60" departLane="best" departSpeed="max" from="E22" to="E30.558"/>
    <trip id="res_motorcycle_int4141" type="res_motorcycle_int4_motorcycle" depart="1782.40" departLane="best" departSpeed="max" from="E30" to="E22.488"/>
    <trip id="res_motorcycle_int4143" type="res_motorcycle_int4_motorcycle" depart="1787.20" departLane="best" departSpeed="max" from="E31" to="E18.410"/>
    <trip id="res_motorcycle_int4144" type="res_motorcycle_int4_motorcycle" depart="1789.60" departLane="best" departSpeed="max" from="E22" to="E22.488"/>
    <trip id="res_motorcycle_int4145" type="res_motorcycle_int4_motorcycle" depart="1792.00" departLane="best" departSpeed="max" from="E18" to="E31.622"/>
    <trip id="res_motorcycle_int4146" type="res_motorcycle_int4_motorcycle" depart="1794.40" departLane="best" departSpeed="max" from="E30" to="E22.488"/>
    <trip id="res_motorcycle_int4147" type="res_motorcycle_int4_motorcycle" depart="1796.80" departLane="best" departSpeed="max" from="E30" to="E30.558"/>
    <trip id="res_motorcycle_int4148" type="res_motorcycle_int4_motorcycle" depart="1799.20" departLane="best" departSpeed="max" from="E22" to="E18.410"/>
    <trip id="res_motorcycle_int4149" type="res_motorcycle_int4_motorcycle" depart="1801.60" departLane="best" departSpeed="max" from="E18" to="E31.622"/>
</routes>
