<?xml version="1.0" encoding="UTF-8"?>

<!-- generated on 2025-07-31 11:10:02.433412 by randomTrips.py v1_23_1+0000-676720d13f6
<configuration>
    <net-file value="osm.net.xml.gz"/>
    <weights-prefix value="random_edge_priority_interval_0"/>
    <output-trip-file value="osm.res_veh.interval_0.trips.xml"/>
    <prefix value="res_veh_int0"/>
    <trip-attributes value="departLane='best'"/>
    <fringe-start-attributes value="departSpeed='max'"/>
    <vehicle-class value="passenger"/>
    <remove-loops value="True"/>
    <validate value="True"/>
    <end value="360.0"/>
    <insertion-rate value="370.0"/>
</configuration>
-->

<!-- generated on 2025-07-31 11:10:02 by Eclipse SUMO duarouter Version 1.23.1
<duarouterConfiguration xmlns:xsi="http://www.w3.org/2001/XMLSchema-instance" xsi:noNamespaceSchemaLocation="http://sumo.dlr.de/xsd/duarouterConfiguration.xsd">

    <input>
        <net-file value="osm.net.xml.gz"/>
        <route-files value="osm.res_veh.interval_0.trips.xml"/>
    </input>

    <output>
        <output-file value="osm.res_veh.interval_0.trips.xml.tmp"/>
        <alternatives-output value="NUL"/>
        <write-trips value="true"/>
    </output>

    <processing>
        <remove-loops value="true"/>
    </processing>

    <time>
        <begin value="0.0"/>
        <end value="360.0"/>
    </time>

    <report>
        <no-warnings value="true"/>
        <ignore-errors value="true"/>
        <no-step-log value="true"/>
    </report>

</duarouterConfiguration>
-->

<routes xmlns:xsi="http://www.w3.org/2001/XMLSchema-instance" xsi:noNamespaceSchemaLocation="http://sumo.dlr.de/xsd/routes_file.xsd">
    <vType id="res_veh_int0_passenger" vClass="passenger"/>
    <trip id="res_veh_int02" type="res_veh_int0_passenger" depart="19.46" departLane="best" departSpeed="max" from="E31" to="E30.558"/>
    <trip id="res_veh_int03" type="res_veh_int0_passenger" depart="29.19" departLane="best" departSpeed="max" from="E31" to="E18.410"/>
    <trip id="res_veh_int05" type="res_veh_int0_passenger" depart="48.65" departLane="best" departSpeed="max" from="E22" to="E30.558"/>
    <trip id="res_veh_int06" type="res_veh_int0_passenger" depart="58.38" departLane="best" departSpeed="max" from="E18" to="E18.410"/>
    <trip id="res_veh_int07" type="res_veh_int0_passenger" depart="68.11" departLane="best" departSpeed="max" from="E30" to="E30.558"/>
    <trip id="res_veh_int08" type="res_veh_int0_passenger" depart="77.84" departLane="best" departSpeed="max" from="E22" to="E30.558"/>
    <trip id="res_veh_int09" type="res_veh_int0_passenger" depart="87.57" departLane="best" departSpeed="max" from="E31" to="E18.410"/>
    <trip id="res_veh_int010" type="res_veh_int0_passenger" depart="97.30" departLane="best" departSpeed="max" from="E31" to="E30.558"/>
    <trip id="res_veh_int013" type="res_veh_int0_passenger" depart="126.49" departLane="best" departSpeed="max" from="E18" to="E18.410"/>
    <trip id="res_veh_int014" type="res_veh_int0_passenger" depart="136.22" departLane="best" departSpeed="max" from="E31" to="E30.558"/>
    <trip id="res_veh_int015" type="res_veh_int0_passenger" depart="145.95" departLane="best" departSpeed="max" from="E31" to="E30.558"/>
    <trip id="res_veh_int016" type="res_veh_int0_passenger" depart="155.68" departLane="best" departSpeed="max" from="E30" to="E31.622"/>
    <trip id="res_veh_int017" type="res_veh_int0_passenger" depart="165.41" departLane="best" departSpeed="max" from="E30" to="E30.558"/>
    <trip id="res_veh_int018" type="res_veh_int0_passenger" depart="175.14" departLane="best" departSpeed="max" from="E31" to="E30.558"/>
    <trip id="res_veh_int019" type="res_veh_int0_passenger" depart="184.86" departLane="best" departSpeed="max" from="E31" to="E30.558"/>
    <trip id="res_veh_int020" type="res_veh_int0_passenger" depart="194.59" departLane="best" departSpeed="max" from="E31" to="E18.410"/>
    <trip id="res_veh_int021" type="res_veh_int0_passenger" depart="204.32" departLane="best" departSpeed="max" from="E30" to="E22.488"/>
    <trip id="res_veh_int022" type="res_veh_int0_passenger" depart="214.05" departLane="best" departSpeed="max" from="E18" to="E18.410"/>
    <trip id="res_veh_int023" type="res_veh_int0_passenger" depart="223.78" departLane="best" departSpeed="max" from="E18" to="E22.488"/>
    <trip id="res_veh_int024" type="res_veh_int0_passenger" depart="233.51" departLane="best" departSpeed="max" from="E30" to="E22.488"/>
    <trip id="res_veh_int026" type="res_veh_int0_passenger" depart="252.97" departLane="best" departSpeed="max" from="E30" to="E31.622"/>
    <trip id="res_veh_int027" type="res_veh_int0_passenger" depart="262.70" departLane="best" departSpeed="max" from="E30" to="E30.558"/>
    <trip id="res_veh_int028" type="res_veh_int0_passenger" depart="272.43" departLane="best" departSpeed="max" from="E22" to="E30.558"/>
    <trip id="res_veh_int029" type="res_veh_int0_passenger" depart="282.16" departLane="best" departSpeed="max" from="E22" to="E22.488"/>
    <trip id="res_veh_int030" type="res_veh_int0_passenger" depart="291.89" departLane="best" departSpeed="max" from="E31" to="E30.558"/>
    <trip id="res_veh_int031" type="res_veh_int0_passenger" depart="301.62" departLane="best" departSpeed="max" from="E30" to="E30.558"/>
    <trip id="res_veh_int032" type="res_veh_int0_passenger" depart="311.35" departLane="best" departSpeed="max" from="E31" to="E31.622"/>
    <trip id="res_veh_int034" type="res_veh_int0_passenger" depart="330.81" departLane="best" departSpeed="max" from="E30" to="E22.488"/>
</routes>
