<?xml version="1.0" encoding="UTF-8"?>

<!-- generated on 2025-07-30 17:25:03.659013 by randomTrips.py v1_23_1+0000-676720d13f6
<configuration>
    <net-file value="osm.net.xml.gz"/>
    <weights-prefix value="random_edge_priority_interval_7"/>
    <output-trip-file value="osm.res_veh.interval_7.trips.xml"/>
    <prefix value="res_veh_int7"/>
    <trip-attributes value="departLane='best'"/>
    <fringe-start-attributes value="departSpeed='max'"/>
    <vehicle-class value="passenger"/>
    <remove-loops value="True"/>
    <validate value="True"/>
    <begin value="2527.0"/>
    <end value="2887.0"/>
    <insertion-rate value="370.0"/>
</configuration>
-->

<!-- generated on 2025-07-30 17:25:03 by Eclipse SUMO duarouter Version 1.23.1
<duarouterConfiguration xmlns:xsi="http://www.w3.org/2001/XMLSchema-instance" xsi:noNamespaceSchemaLocation="http://sumo.dlr.de/xsd/duarouterConfiguration.xsd">

    <input>
        <net-file value="osm.net.xml.gz"/>
        <route-files value="osm.res_veh.interval_7.trips.xml"/>
    </input>

    <output>
        <output-file value="osm.res_veh.interval_7.trips.xml.tmp"/>
        <alternatives-output value="NUL"/>
        <write-trips value="true"/>
    </output>

    <processing>
        <remove-loops value="true"/>
    </processing>

    <time>
        <begin value="2527.0"/>
        <end value="2887.0"/>
    </time>

    <report>
        <no-warnings value="true"/>
        <ignore-errors value="true"/>
        <no-step-log value="true"/>
    </report>

</duarouterConfiguration>
-->

<routes xmlns:xsi="http://www.w3.org/2001/XMLSchema-instance" xsi:noNamespaceSchemaLocation="http://sumo.dlr.de/xsd/routes_file.xsd">
    <vType id="res_veh_int7_passenger" vClass="passenger"/>
    <trip id="res_veh_int71" type="res_veh_int7_passenger" depart="2536.73" departLane="best" departSpeed="max" from="E22" to="E18.410"/>
    <trip id="res_veh_int72" type="res_veh_int7_passenger" depart="2546.46" departLane="best" departSpeed="max" from="E30" to="E30.558"/>
    <trip id="res_veh_int73" type="res_veh_int7_passenger" depart="2556.19" departLane="best" departSpeed="max" from="E31" to="E18.410"/>
    <trip id="res_veh_int74" type="res_veh_int7_passenger" depart="2565.92" departLane="best" departSpeed="max" from="E22" to="E18.410"/>
    <trip id="res_veh_int76" type="res_veh_int7_passenger" depart="2585.38" departLane="best" departSpeed="max" from="E18" to="E18.410"/>
    <trip id="res_veh_int77" type="res_veh_int7_passenger" depart="2595.11" departLane="best" departSpeed="max" from="E30" to="E30.558"/>
    <trip id="res_veh_int79" type="res_veh_int7_passenger" depart="2614.57" departLane="best" departSpeed="max" from="E31" to="E18.410"/>
    <trip id="res_veh_int710" type="res_veh_int7_passenger" depart="2624.30" departLane="best" departSpeed="max" from="E31" to="E30.558"/>
    <trip id="res_veh_int711" type="res_veh_int7_passenger" depart="2634.03" departLane="best" departSpeed="max" from="E22" to="E18.410"/>
    <trip id="res_veh_int713" type="res_veh_int7_passenger" depart="2653.49" departLane="best" departSpeed="max" from="E18" to="E18.410"/>
    <trip id="res_veh_int714" type="res_veh_int7_passenger" depart="2663.22" departLane="best" departSpeed="max" from="E31" to="E30.558"/>
    <trip id="res_veh_int715" type="res_veh_int7_passenger" depart="2672.95" departLane="best" departSpeed="max" from="E31" to="E30.558"/>
    <trip id="res_veh_int716" type="res_veh_int7_passenger" depart="2682.68" departLane="best" departSpeed="max" from="E30" to="E31.622"/>
    <trip id="res_veh_int717" type="res_veh_int7_passenger" depart="2692.41" departLane="best" departSpeed="max" from="E22" to="E30.558"/>
    <trip id="res_veh_int718" type="res_veh_int7_passenger" depart="2702.14" departLane="best" departSpeed="max" from="E31" to="E30.558"/>
    <trip id="res_veh_int719" type="res_veh_int7_passenger" depart="2711.86" departLane="best" departSpeed="max" from="E31" to="E30.558"/>
    <trip id="res_veh_int721" type="res_veh_int7_passenger" depart="2731.32" departLane="best" departSpeed="max" from="E18" to="E22.488"/>
    <trip id="res_veh_int722" type="res_veh_int7_passenger" depart="2741.05" departLane="best" departSpeed="max" from="E18" to="E18.410"/>
    <trip id="res_veh_int723" type="res_veh_int7_passenger" depart="2750.78" departLane="best" departSpeed="max" from="E18" to="E22.488"/>
    <trip id="res_veh_int724" type="res_veh_int7_passenger" depart="2760.51" departLane="best" departSpeed="max" from="E30" to="E22.488"/>
    <trip id="res_veh_int725" type="res_veh_int7_passenger" depart="2770.24" departLane="best" departSpeed="max" from="E22" to="E18.410"/>
    <trip id="res_veh_int727" type="res_veh_int7_passenger" depart="2789.70" departLane="best" departSpeed="max" from="E30" to="E30.558"/>
    <trip id="res_veh_int729" type="res_veh_int7_passenger" depart="2809.16" departLane="best" departSpeed="max" from="E18" to="E22.488"/>
    <trip id="res_veh_int730" type="res_veh_int7_passenger" depart="2818.89" departLane="best" departSpeed="max" from="E31" to="E30.558"/>
    <trip id="res_veh_int731" type="res_veh_int7_passenger" depart="2828.62" departLane="best" departSpeed="max" from="E30" to="E30.558"/>
    <trip id="res_veh_int732" type="res_veh_int7_passenger" depart="2838.35" departLane="best" departSpeed="max" from="E31" to="E31.622"/>
    <trip id="res_veh_int733" type="res_veh_int7_passenger" depart="2848.08" departLane="best" departSpeed="max" from="E18" to="E18.410"/>
    <trip id="res_veh_int734" type="res_veh_int7_passenger" depart="2857.81" departLane="best" departSpeed="max" from="E22" to="E22.488"/>
    <trip id="res_veh_int735" type="res_veh_int7_passenger" depart="2867.54" departLane="best" departSpeed="max" from="E18" to="E31.622"/>
</routes>
