<routes>

<!-- generated on 2025-07-31 11:10:14.583488 by randomTrips.py v1_23_1+0000-676720d13f6
<configuration>
    <net-file value="osm.net.xml.gz"/>
    <weights-prefix value="random_edge_priority_interval_0"/>
    <output-trip-file value="osm.res_truck.interval_0.trips.xml"/>
    <prefix value="res_truck_int0"/>
    <trip-attributes value="departLane='best'"/>
    <fringe-start-attributes value="departSpeed='max'"/>
    <vehicle-class value="truck"/>
    <vclass value="truck"/>
    <remove-loops value="True"/>
    <validate value="True"/>
    <end value="360.0"/>
    <insertion-rate value="100.0"/>
</configuration>
-->

<!-- generated on 2025-07-31 11:10:14 by Eclipse SUMO duarouter Version 1.23.1
<duarouterConfiguration xmlns:xsi="http://www.w3.org/2001/XMLSchema-instance" xsi:noNamespaceSchemaLocation="http://sumo.dlr.de/xsd/duarouterConfiguration.xsd">

    <input>
        <net-file value="osm.net.xml.gz"/>
        <route-files value="osm.res_truck.interval_0.trips.xml"/>
    </input>

    <output>
        <output-file value="osm.res_truck.interval_0.trips.xml.tmp"/>
        <alternatives-output value="NUL"/>
        <write-trips value="true"/>
    </output>

    <processing>
        <remove-loops value="true"/>
    </processing>

    <time>
        <begin value="0.0"/>
        <end value="360.0"/>
    </time>

    <report>
        <no-warnings value="true"/>
        <ignore-errors value="true"/>
        <no-step-log value="true"/>
    </report>

</duarouterConfiguration>
-->

    <vType id="res_truck_int0_truck" vClass="truck"/>
    <trip id="res_truck_int02" type="res_truck_int0_truck" depart="72.00" departLane="best" departSpeed="max" from="E31" to="E30.558"/>
    <trip id="res_truck_int03" type="res_truck_int0_truck" depart="108.00" departLane="best" departSpeed="max" from="E31" to="E18.410"/>
    <trip id="res_truck_int05" type="res_truck_int0_truck" depart="180.00" departLane="best" departSpeed="max" from="E22" to="E30.558"/>
    <trip id="res_truck_int06" type="res_truck_int0_truck" depart="216.00" departLane="best" departSpeed="max" from="E18" to="E18.410"/>
    <trip id="res_truck_int07" type="res_truck_int0_truck" depart="252.00" departLane="best" departSpeed="max" from="E30" to="E30.558"/>
    <trip id="res_truck_int08" type="res_truck_int0_truck" depart="288.00" departLane="best" departSpeed="max" from="E22" to="E30.558"/>
    <trip id="res_truck_int09" type="res_truck_int0_truck" depart="324.00" departLane="best" departSpeed="max" from="E31" to="E18.410"/>

<!-- generated on 2025-07-31 11:10:15.677609 by randomTrips.py v1_23_1+0000-676720d13f6
<configuration>
    <net-file value="osm.net.xml.gz"/>
    <weights-prefix value="random_edge_priority_interval_1"/>
    <output-trip-file value="osm.res_truck.interval_1.trips.xml"/>
    <prefix value="res_truck_int1"/>
    <trip-attributes value="departLane='best'"/>
    <fringe-start-attributes value="departSpeed='max'"/>
    <vehicle-class value="truck"/>
    <vclass value="truck"/>
    <remove-loops value="True"/>
    <validate value="True"/>
    <begin value="361.0"/>
    <end value="721.0"/>
    <insertion-rate value="100.0"/>
</configuration>
-->

<!-- generated on 2025-07-31 11:10:15 by Eclipse SUMO duarouter Version 1.23.1
<duarouterConfiguration xmlns:xsi="http://www.w3.org/2001/XMLSchema-instance" xsi:noNamespaceSchemaLocation="http://sumo.dlr.de/xsd/duarouterConfiguration.xsd">

    <input>
        <net-file value="osm.net.xml.gz"/>
        <route-files value="osm.res_truck.interval_1.trips.xml"/>
    </input>

    <output>
        <output-file value="osm.res_truck.interval_1.trips.xml.tmp"/>
        <alternatives-output value="NUL"/>
        <write-trips value="true"/>
    </output>

    <processing>
        <remove-loops value="true"/>
    </processing>

    <time>
        <begin value="361.0"/>
        <end value="721.0"/>
    </time>

    <report>
        <no-warnings value="true"/>
        <ignore-errors value="true"/>
        <no-step-log value="true"/>
    </report>

</duarouterConfiguration>
-->

    <vType id="res_truck_int1_truck" vClass="truck"/>
    <trip id="res_truck_int10" type="res_truck_int1_truck" depart="361.00" departLane="best" departSpeed="max" from="E22" to="E18.410"/>
    <trip id="res_truck_int11" type="res_truck_int1_truck" depart="397.00" departLane="best" departSpeed="max" from="E18" to="E18.410"/>
    <trip id="res_truck_int12" type="res_truck_int1_truck" depart="433.00" departLane="best" departSpeed="max" from="E30" to="E30.558"/>
    <trip id="res_truck_int13" type="res_truck_int1_truck" depart="469.00" departLane="best" departSpeed="max" from="E31" to="E18.410"/>
    <trip id="res_truck_int14" type="res_truck_int1_truck" depart="505.00" departLane="best" departSpeed="max" from="E18" to="E18.410"/>
    <trip id="res_truck_int16" type="res_truck_int1_truck" depart="577.00" departLane="best" departSpeed="max" from="E18" to="E18.410"/>
    <trip id="res_truck_int17" type="res_truck_int1_truck" depart="613.00" departLane="best" departSpeed="max" from="E22" to="E30.558"/>

<!-- generated on 2025-07-31 11:10:16.791233 by randomTrips.py v1_23_1+0000-676720d13f6
<configuration>
    <net-file value="osm.net.xml.gz"/>
    <weights-prefix value="random_edge_priority_interval_2"/>
    <output-trip-file value="osm.res_truck.interval_2.trips.xml"/>
    <prefix value="res_truck_int2"/>
    <trip-attributes value="departLane='best'"/>
    <fringe-start-attributes value="departSpeed='max'"/>
    <vehicle-class value="truck"/>
    <vclass value="truck"/>
    <remove-loops value="True"/>
    <validate value="True"/>
    <begin value="722.0"/>
    <end value="1082.0"/>
    <insertion-rate value="100.0"/>
</configuration>
-->

<!-- generated on 2025-07-31 11:10:16 by Eclipse SUMO duarouter Version 1.23.1
<duarouterConfiguration xmlns:xsi="http://www.w3.org/2001/XMLSchema-instance" xsi:noNamespaceSchemaLocation="http://sumo.dlr.de/xsd/duarouterConfiguration.xsd">

    <input>
        <net-file value="osm.net.xml.gz"/>
        <route-files value="osm.res_truck.interval_2.trips.xml"/>
    </input>

    <output>
        <output-file value="osm.res_truck.interval_2.trips.xml.tmp"/>
        <alternatives-output value="NUL"/>
        <write-trips value="true"/>
    </output>

    <processing>
        <remove-loops value="true"/>
    </processing>

    <time>
        <begin value="722.0"/>
        <end value="1082.0"/>
    </time>

    <report>
        <no-warnings value="true"/>
        <ignore-errors value="true"/>
        <no-step-log value="true"/>
    </report>

</duarouterConfiguration>
-->

    <vType id="res_truck_int2_truck" vClass="truck"/>
    <trip id="res_truck_int20" type="res_truck_int2_truck" depart="722.00" departLane="best" departSpeed="max" from="E22" to="E18.410"/>
    <trip id="res_truck_int21" type="res_truck_int2_truck" depart="758.00" departLane="best" departSpeed="max" from="E18" to="E18.410"/>
    <trip id="res_truck_int22" type="res_truck_int2_truck" depart="794.00" departLane="best" departSpeed="max" from="E30" to="E30.558"/>
    <trip id="res_truck_int24" type="res_truck_int2_truck" depart="866.00" departLane="best" departSpeed="max" from="E22" to="E18.410"/>
    <trip id="res_truck_int26" type="res_truck_int2_truck" depart="938.00" departLane="best" departSpeed="max" from="E18" to="E18.410"/>
    <trip id="res_truck_int27" type="res_truck_int2_truck" depart="974.00" departLane="best" departSpeed="max" from="E30" to="E30.558"/>

<!-- generated on 2025-07-31 11:10:18.159592 by randomTrips.py v1_23_1+0000-676720d13f6
<configuration>
    <net-file value="osm.net.xml.gz"/>
    <weights-prefix value="random_edge_priority_interval_3"/>
    <output-trip-file value="osm.res_truck.interval_3.trips.xml"/>
    <prefix value="res_truck_int3"/>
    <trip-attributes value="departLane='best'"/>
    <fringe-start-attributes value="departSpeed='max'"/>
    <vehicle-class value="truck"/>
    <vclass value="truck"/>
    <remove-loops value="True"/>
    <validate value="True"/>
    <begin value="1083.0"/>
    <end value="1443.0"/>
    <insertion-rate value="100.0"/>
</configuration>
-->

<!-- generated on 2025-07-31 11:10:18 by Eclipse SUMO duarouter Version 1.23.1
<duarouterConfiguration xmlns:xsi="http://www.w3.org/2001/XMLSchema-instance" xsi:noNamespaceSchemaLocation="http://sumo.dlr.de/xsd/duarouterConfiguration.xsd">

    <input>
        <net-file value="osm.net.xml.gz"/>
        <route-files value="osm.res_truck.interval_3.trips.xml"/>
    </input>

    <output>
        <output-file value="osm.res_truck.interval_3.trips.xml.tmp"/>
        <alternatives-output value="NUL"/>
        <write-trips value="true"/>
    </output>

    <processing>
        <remove-loops value="true"/>
    </processing>

    <time>
        <begin value="1083.0"/>
        <end value="1443.0"/>
    </time>

    <report>
        <no-warnings value="true"/>
        <ignore-errors value="true"/>
        <no-step-log value="true"/>
    </report>

</duarouterConfiguration>
-->

    <vType id="res_truck_int3_truck" vClass="truck"/>
    <trip id="res_truck_int31" type="res_truck_int3_truck" depart="1119.00" departLane="best" departSpeed="max" from="E18" to="E18.410"/>
    <trip id="res_truck_int32" type="res_truck_int3_truck" depart="1155.00" departLane="best" departSpeed="max" from="E30" to="E30.558"/>
    <trip id="res_truck_int33" type="res_truck_int3_truck" depart="1191.00" departLane="best" departSpeed="max" from="E31" to="E18.410"/>
    <trip id="res_truck_int34" type="res_truck_int3_truck" depart="1227.00" departLane="best" departSpeed="max" from="E22" to="E18.410"/>
    <trip id="res_truck_int36" type="res_truck_int3_truck" depart="1299.00" departLane="best" departSpeed="max" from="E18" to="E18.410"/>
    <trip id="res_truck_int37" type="res_truck_int3_truck" depart="1335.00" departLane="best" departSpeed="max" from="E30" to="E30.558"/>

<!-- generated on 2025-07-31 11:10:19.557991 by randomTrips.py v1_23_1+0000-676720d13f6
<configuration>
    <net-file value="osm.net.xml.gz"/>
    <weights-prefix value="random_edge_priority_interval_4"/>
    <output-trip-file value="osm.res_truck.interval_4.trips.xml"/>
    <prefix value="res_truck_int4"/>
    <trip-attributes value="departLane='best'"/>
    <fringe-start-attributes value="departSpeed='max'"/>
    <vehicle-class value="truck"/>
    <vclass value="truck"/>
    <remove-loops value="True"/>
    <validate value="True"/>
    <begin value="1444.0"/>
    <end value="1804.0"/>
    <insertion-rate value="100.0"/>
</configuration>
-->

<!-- generated on 2025-07-31 11:10:19 by Eclipse SUMO duarouter Version 1.23.1
<duarouterConfiguration xmlns:xsi="http://www.w3.org/2001/XMLSchema-instance" xsi:noNamespaceSchemaLocation="http://sumo.dlr.de/xsd/duarouterConfiguration.xsd">

    <input>
        <net-file value="osm.net.xml.gz"/>
        <route-files value="osm.res_truck.interval_4.trips.xml"/>
    </input>

    <output>
        <output-file value="osm.res_truck.interval_4.trips.xml.tmp"/>
        <alternatives-output value="NUL"/>
        <write-trips value="true"/>
    </output>

    <processing>
        <remove-loops value="true"/>
    </processing>

    <time>
        <begin value="1444.0"/>
        <end value="1804.0"/>
    </time>

    <report>
        <no-warnings value="true"/>
        <ignore-errors value="true"/>
        <no-step-log value="true"/>
    </report>

</duarouterConfiguration>
-->

    <vType id="res_truck_int4_truck" vClass="truck"/>
    <trip id="res_truck_int40" type="res_truck_int4_truck" depart="1444.00" departLane="best" departSpeed="max" from="E22" to="E18.410"/>
    <trip id="res_truck_int41" type="res_truck_int4_truck" depart="1480.00" departLane="best" departSpeed="max" from="E18" to="E18.410"/>
    <trip id="res_truck_int42" type="res_truck_int4_truck" depart="1516.00" departLane="best" departSpeed="max" from="E30" to="E30.558"/>
    <trip id="res_truck_int43" type="res_truck_int4_truck" depart="1552.00" departLane="best" departSpeed="max" from="E31" to="E18.410"/>
    <trip id="res_truck_int44" type="res_truck_int4_truck" depart="1588.00" departLane="best" departSpeed="max" from="E18" to="E18.410"/>
    <trip id="res_truck_int46" type="res_truck_int4_truck" depart="1660.00" departLane="best" departSpeed="max" from="E18" to="E18.410"/>
    <trip id="res_truck_int47" type="res_truck_int4_truck" depart="1696.00" departLane="best" departSpeed="max" from="E22" to="E30.558"/>

<!-- generated on 2025-07-31 11:10:20.772247 by randomTrips.py v1_23_1+0000-676720d13f6
<configuration>
    <net-file value="osm.net.xml.gz"/>
    <weights-prefix value="random_edge_priority_interval_5"/>
    <output-trip-file value="osm.res_truck.interval_5.trips.xml"/>
    <prefix value="res_truck_int5"/>
    <trip-attributes value="departLane='best'"/>
    <fringe-start-attributes value="departSpeed='max'"/>
    <vehicle-class value="truck"/>
    <vclass value="truck"/>
    <remove-loops value="True"/>
    <validate value="True"/>
    <begin value="1805.0"/>
    <end value="2165.0"/>
    <insertion-rate value="100.0"/>
</configuration>
-->

<!-- generated on 2025-07-31 11:10:20 by Eclipse SUMO duarouter Version 1.23.1
<duarouterConfiguration xmlns:xsi="http://www.w3.org/2001/XMLSchema-instance" xsi:noNamespaceSchemaLocation="http://sumo.dlr.de/xsd/duarouterConfiguration.xsd">

    <input>
        <net-file value="osm.net.xml.gz"/>
        <route-files value="osm.res_truck.interval_5.trips.xml"/>
    </input>

    <output>
        <output-file value="osm.res_truck.interval_5.trips.xml.tmp"/>
        <alternatives-output value="NUL"/>
        <write-trips value="true"/>
    </output>

    <processing>
        <remove-loops value="true"/>
    </processing>

    <time>
        <begin value="1805.0"/>
        <end value="2165.0"/>
    </time>

    <report>
        <no-warnings value="true"/>
        <ignore-errors value="true"/>
        <no-step-log value="true"/>
    </report>

</duarouterConfiguration>
-->

    <vType id="res_truck_int5_truck" vClass="truck"/>
    <trip id="res_truck_int51" type="res_truck_int5_truck" depart="1841.00" departLane="best" departSpeed="max" from="E18" to="E18.410"/>
    <trip id="res_truck_int52" type="res_truck_int5_truck" depart="1877.00" departLane="best" departSpeed="max" from="E30" to="E30.558"/>
    <trip id="res_truck_int53" type="res_truck_int5_truck" depart="1913.00" departLane="best" departSpeed="max" from="E31" to="E18.410"/>
    <trip id="res_truck_int54" type="res_truck_int5_truck" depart="1949.00" departLane="best" departSpeed="max" from="E22" to="E18.410"/>
    <trip id="res_truck_int56" type="res_truck_int5_truck" depart="2021.00" departLane="best" departSpeed="max" from="E18" to="E18.410"/>
    <trip id="res_truck_int57" type="res_truck_int5_truck" depart="2057.00" departLane="best" departSpeed="max" from="E30" to="E30.558"/>

<!-- generated on 2025-07-31 11:10:21.875294 by randomTrips.py v1_23_1+0000-676720d13f6
<configuration>
    <net-file value="osm.net.xml.gz"/>
    <weights-prefix value="random_edge_priority_interval_6"/>
    <output-trip-file value="osm.res_truck.interval_6.trips.xml"/>
    <prefix value="res_truck_int6"/>
    <trip-attributes value="departLane='best'"/>
    <fringe-start-attributes value="departSpeed='max'"/>
    <vehicle-class value="truck"/>
    <vclass value="truck"/>
    <remove-loops value="True"/>
    <validate value="True"/>
    <begin value="2166.0"/>
    <end value="2526.0"/>
    <insertion-rate value="400.0"/>
</configuration>
-->

<!-- generated on 2025-07-31 11:10:21 by Eclipse SUMO duarouter Version 1.23.1
<duarouterConfiguration xmlns:xsi="http://www.w3.org/2001/XMLSchema-instance" xsi:noNamespaceSchemaLocation="http://sumo.dlr.de/xsd/duarouterConfiguration.xsd">

    <input>
        <net-file value="osm.net.xml.gz"/>
        <route-files value="osm.res_truck.interval_6.trips.xml"/>
    </input>

    <output>
        <output-file value="osm.res_truck.interval_6.trips.xml.tmp"/>
        <alternatives-output value="NUL"/>
        <write-trips value="true"/>
    </output>

    <processing>
        <remove-loops value="true"/>
    </processing>

    <time>
        <begin value="2166.0"/>
        <end value="2526.0"/>
    </time>

    <report>
        <no-warnings value="true"/>
        <ignore-errors value="true"/>
        <no-step-log value="true"/>
    </report>

</duarouterConfiguration>
-->

    <vType id="res_truck_int6_truck" vClass="truck"/>
    <trip id="res_truck_int62" type="res_truck_int6_truck" depart="2184.00" departLane="best" departSpeed="max" from="E31" to="E30.558"/>
    <trip id="res_truck_int63" type="res_truck_int6_truck" depart="2193.00" departLane="best" departSpeed="max" from="E31" to="E18.410"/>
    <trip id="res_truck_int65" type="res_truck_int6_truck" depart="2211.00" departLane="best" departSpeed="max" from="E22" to="E30.558"/>
    <trip id="res_truck_int66" type="res_truck_int6_truck" depart="2220.00" departLane="best" departSpeed="max" from="E18" to="E18.410"/>
    <trip id="res_truck_int67" type="res_truck_int6_truck" depart="2229.00" departLane="best" departSpeed="max" from="E30" to="E30.558"/>
    <trip id="res_truck_int68" type="res_truck_int6_truck" depart="2238.00" departLane="best" departSpeed="max" from="E22" to="E30.558"/>
    <trip id="res_truck_int69" type="res_truck_int6_truck" depart="2247.00" departLane="best" departSpeed="max" from="E31" to="E18.410"/>
    <trip id="res_truck_int610" type="res_truck_int6_truck" depart="2256.00" departLane="best" departSpeed="max" from="E31" to="E30.558"/>
    <trip id="res_truck_int613" type="res_truck_int6_truck" depart="2283.00" departLane="best" departSpeed="max" from="E18" to="E18.410"/>
    <trip id="res_truck_int614" type="res_truck_int6_truck" depart="2292.00" departLane="best" departSpeed="max" from="E31" to="E30.558"/>
    <trip id="res_truck_int615" type="res_truck_int6_truck" depart="2301.00" departLane="best" departSpeed="max" from="E31" to="E30.558"/>
    <trip id="res_truck_int616" type="res_truck_int6_truck" depart="2310.00" departLane="best" departSpeed="max" from="E30" to="E31.622"/>
    <trip id="res_truck_int617" type="res_truck_int6_truck" depart="2319.00" departLane="best" departSpeed="max" from="E30" to="E30.558"/>
    <trip id="res_truck_int618" type="res_truck_int6_truck" depart="2328.00" departLane="best" departSpeed="max" from="E31" to="E30.558"/>
    <trip id="res_truck_int619" type="res_truck_int6_truck" depart="2337.00" departLane="best" departSpeed="max" from="E31" to="E30.558"/>
    <trip id="res_truck_int620" type="res_truck_int6_truck" depart="2346.00" departLane="best" departSpeed="max" from="E31" to="E18.410"/>
    <trip id="res_truck_int621" type="res_truck_int6_truck" depart="2355.00" departLane="best" departSpeed="max" from="E22" to="E22.488"/>
    <trip id="res_truck_int622" type="res_truck_int6_truck" depart="2364.00" departLane="best" departSpeed="max" from="E18" to="E18.410"/>
    <trip id="res_truck_int623" type="res_truck_int6_truck" depart="2373.00" departLane="best" departSpeed="max" from="E18" to="E22.488"/>
    <trip id="res_truck_int624" type="res_truck_int6_truck" depart="2382.00" departLane="best" departSpeed="max" from="E30" to="E22.488"/>
    <trip id="res_truck_int626" type="res_truck_int6_truck" depart="2400.00" departLane="best" departSpeed="max" from="E30" to="E31.622"/>
    <trip id="res_truck_int627" type="res_truck_int6_truck" depart="2409.00" departLane="best" departSpeed="max" from="E30" to="E30.558"/>
    <trip id="res_truck_int628" type="res_truck_int6_truck" depart="2418.00" departLane="best" departSpeed="max" from="E22" to="E30.558"/>
    <trip id="res_truck_int629" type="res_truck_int6_truck" depart="2427.00" departLane="best" departSpeed="max" from="E22" to="E22.488"/>
    <trip id="res_truck_int630" type="res_truck_int6_truck" depart="2436.00" departLane="best" departSpeed="max" from="E31" to="E30.558"/>
    <trip id="res_truck_int631" type="res_truck_int6_truck" depart="2445.00" departLane="best" departSpeed="max" from="E30" to="E30.558"/>
    <trip id="res_truck_int632" type="res_truck_int6_truck" depart="2454.00" departLane="best" departSpeed="max" from="E31" to="E31.622"/>
    <trip id="res_truck_int633" type="res_truck_int6_truck" depart="2463.00" departLane="best" departSpeed="max" from="E22" to="E18.410"/>
    <trip id="res_truck_int634" type="res_truck_int6_truck" depart="2472.00" departLane="best" departSpeed="max" from="E30" to="E22.488"/>
    <trip id="res_truck_int637" type="res_truck_int6_truck" depart="2499.00" departLane="best" departSpeed="max" from="E30" to="E22.488"/>

<!-- generated on 2025-07-31 11:10:22.889429 by randomTrips.py v1_23_1+0000-676720d13f6
<configuration>
    <net-file value="osm.net.xml.gz"/>
    <weights-prefix value="random_edge_priority_interval_7"/>
    <output-trip-file value="osm.res_truck.interval_7.trips.xml"/>
    <prefix value="res_truck_int7"/>
    <trip-attributes value="departLane='best'"/>
    <fringe-start-attributes value="departSpeed='max'"/>
    <vehicle-class value="truck"/>
    <vclass value="truck"/>
    <remove-loops value="True"/>
    <validate value="True"/>
    <begin value="2527.0"/>
    <end value="2887.0"/>
    <insertion-rate value="100.0"/>
</configuration>
-->

<!-- generated on 2025-07-31 11:10:22 by Eclipse SUMO duarouter Version 1.23.1
<duarouterConfiguration xmlns:xsi="http://www.w3.org/2001/XMLSchema-instance" xsi:noNamespaceSchemaLocation="http://sumo.dlr.de/xsd/duarouterConfiguration.xsd">

    <input>
        <net-file value="osm.net.xml.gz"/>
        <route-files value="osm.res_truck.interval_7.trips.xml"/>
    </input>

    <output>
        <output-file value="osm.res_truck.interval_7.trips.xml.tmp"/>
        <alternatives-output value="NUL"/>
        <write-trips value="true"/>
    </output>

    <processing>
        <remove-loops value="true"/>
    </processing>

    <time>
        <begin value="2527.0"/>
        <end value="2887.0"/>
    </time>

    <report>
        <no-warnings value="true"/>
        <ignore-errors value="true"/>
        <no-step-log value="true"/>
    </report>

</duarouterConfiguration>
-->

    <vType id="res_truck_int7_truck" vClass="truck"/>
    <trip id="res_truck_int71" type="res_truck_int7_truck" depart="2563.00" departLane="best" departSpeed="max" from="E22" to="E18.410"/>
    <trip id="res_truck_int72" type="res_truck_int7_truck" depart="2599.00" departLane="best" departSpeed="max" from="E31" to="E30.558"/>
    <trip id="res_truck_int73" type="res_truck_int7_truck" depart="2635.00" departLane="best" departSpeed="max" from="E31" to="E18.410"/>
    <trip id="res_truck_int75" type="res_truck_int7_truck" depart="2707.00" departLane="best" departSpeed="max" from="E22" to="E30.558"/>
    <trip id="res_truck_int76" type="res_truck_int7_truck" depart="2743.00" departLane="best" departSpeed="max" from="E18" to="E18.410"/>
    <trip id="res_truck_int77" type="res_truck_int7_truck" depart="2779.00" departLane="best" departSpeed="max" from="E30" to="E30.558"/>
    <trip id="res_truck_int78" type="res_truck_int7_truck" depart="2815.00" departLane="best" departSpeed="max" from="E22" to="E30.558"/>
    <trip id="res_truck_int79" type="res_truck_int7_truck" depart="2851.00" departLane="best" departSpeed="max" from="E31" to="E18.410"/>

<!-- generated on 2025-07-31 11:10:23.965001 by randomTrips.py v1_23_1+0000-676720d13f6
<configuration>
    <net-file value="osm.net.xml.gz"/>
    <weights-prefix value="random_edge_priority_interval_8"/>
    <output-trip-file value="osm.res_truck.interval_8.trips.xml"/>
    <prefix value="res_truck_int8"/>
    <trip-attributes value="departLane='best'"/>
    <fringe-start-attributes value="departSpeed='max'"/>
    <vehicle-class value="truck"/>
    <vclass value="truck"/>
    <remove-loops value="True"/>
    <validate value="True"/>
    <begin value="2888.0"/>
    <end value="3248.0"/>
    <insertion-rate value="100.0"/>
</configuration>
-->

<!-- generated on 2025-07-31 11:10:23 by Eclipse SUMO duarouter Version 1.23.1
<duarouterConfiguration xmlns:xsi="http://www.w3.org/2001/XMLSchema-instance" xsi:noNamespaceSchemaLocation="http://sumo.dlr.de/xsd/duarouterConfiguration.xsd">

    <input>
        <net-file value="osm.net.xml.gz"/>
        <route-files value="osm.res_truck.interval_8.trips.xml"/>
    </input>

    <output>
        <output-file value="osm.res_truck.interval_8.trips.xml.tmp"/>
        <alternatives-output value="NUL"/>
        <write-trips value="true"/>
    </output>

    <processing>
        <remove-loops value="true"/>
    </processing>

    <time>
        <begin value="2888.0"/>
        <end value="3248.0"/>
    </time>

    <report>
        <no-warnings value="true"/>
        <ignore-errors value="true"/>
        <no-step-log value="true"/>
    </report>

</duarouterConfiguration>
-->

    <vType id="res_truck_int8_truck" vClass="truck"/>
    <trip id="res_truck_int81" type="res_truck_int8_truck" depart="2924.00" departLane="best" departSpeed="max" from="E22" to="E18.410"/>
    <trip id="res_truck_int82" type="res_truck_int8_truck" depart="2960.00" departLane="best" departSpeed="max" from="E30" to="E30.558"/>
    <trip id="res_truck_int83" type="res_truck_int8_truck" depart="2996.00" departLane="best" departSpeed="max" from="E31" to="E18.410"/>
    <trip id="res_truck_int84" type="res_truck_int8_truck" depart="3032.00" departLane="best" departSpeed="max" from="E22" to="E18.410"/>
    <trip id="res_truck_int85" type="res_truck_int8_truck" depart="3068.00" departLane="best" departSpeed="max" from="E22" to="E30.558"/>
    <trip id="res_truck_int86" type="res_truck_int8_truck" depart="3104.00" departLane="best" departSpeed="max" from="E18" to="E18.410"/>
    <trip id="res_truck_int87" type="res_truck_int8_truck" depart="3140.00" departLane="best" departSpeed="max" from="E30" to="E30.558"/>
    <trip id="res_truck_int88" type="res_truck_int8_truck" depart="3176.00" departLane="best" departSpeed="max" from="E22" to="E30.558"/>
    <trip id="res_truck_int89" type="res_truck_int8_truck" depart="3212.00" departLane="best" departSpeed="max" from="E31" to="E18.410"/>

<!-- generated on 2025-07-31 11:10:25.035333 by randomTrips.py v1_23_1+0000-676720d13f6
<configuration>
    <net-file value="osm.net.xml.gz"/>
    <weights-prefix value="random_edge_priority_interval_9"/>
    <output-trip-file value="osm.res_truck.interval_9.trips.xml"/>
    <prefix value="res_truck_int9"/>
    <trip-attributes value="departLane='best'"/>
    <fringe-start-attributes value="departSpeed='max'"/>
    <vehicle-class value="truck"/>
    <vclass value="truck"/>
    <remove-loops value="True"/>
    <validate value="True"/>
    <begin value="3249.0"/>
    <insertion-rate value="102.56410256410257"/>
</configuration>
-->

<!-- generated on 2025-07-31 11:10:24 by Eclipse SUMO duarouter Version 1.23.1
<duarouterConfiguration xmlns:xsi="http://www.w3.org/2001/XMLSchema-instance" xsi:noNamespaceSchemaLocation="http://sumo.dlr.de/xsd/duarouterConfiguration.xsd">

    <input>
        <net-file value="osm.net.xml.gz"/>
        <route-files value="osm.res_truck.interval_9.trips.xml"/>
    </input>

    <output>
        <output-file value="osm.res_truck.interval_9.trips.xml.tmp"/>
        <alternatives-output value="NUL"/>
        <write-trips value="true"/>
    </output>

    <processing>
        <remove-loops value="true"/>
    </processing>

    <time>
        <begin value="3249.0"/>
        <end value="3600.0"/>
    </time>

    <report>
        <no-warnings value="true"/>
        <ignore-errors value="true"/>
        <no-step-log value="true"/>
    </report>

</duarouterConfiguration>
-->

    <vType id="res_truck_int9_truck" vClass="truck"/>
    <trip id="res_truck_int90" type="res_truck_int9_truck" depart="3249.00" departLane="best" departSpeed="max" from="E31" to="E18.410"/>
    <trip id="res_truck_int91" type="res_truck_int9_truck" depart="3284.10" departLane="best" departSpeed="max" from="E22" to="E18.410"/>
    <trip id="res_truck_int92" type="res_truck_int9_truck" depart="3319.20" departLane="best" departSpeed="max" from="E31" to="E30.558"/>
    <trip id="res_truck_int93" type="res_truck_int9_truck" depart="3354.30" departLane="best" departSpeed="max" from="E31" to="E18.410"/>
    <trip id="res_truck_int94" type="res_truck_int9_truck" depart="3389.40" departLane="best" departSpeed="max" from="E22" to="E18.410"/>
    <trip id="res_truck_int95" type="res_truck_int9_truck" depart="3424.50" departLane="best" departSpeed="max" from="E22" to="E30.558"/>
    <trip id="res_truck_int96" type="res_truck_int9_truck" depart="3459.60" departLane="best" departSpeed="max" from="E18" to="E18.410"/>
    <trip id="res_truck_int97" type="res_truck_int9_truck" depart="3494.70" departLane="best" departSpeed="max" from="E31" to="E30.558"/>
    <trip id="res_truck_int98" type="res_truck_int9_truck" depart="3529.80" departLane="best" departSpeed="max" from="E22" to="E30.558"/>
    <trip id="res_truck_int99" type="res_truck_int9_truck" depart="3564.90" departLane="best" departSpeed="max" from="E31" to="E18.410"/>
</routes>
