<?xml version="1.0" encoding="UTF-8"?>

<!-- generated on 2025-07-30 17:25:02.821095 by randomTrips.py v1_23_1+0000-676720d13f6
<configuration>
    <net-file value="osm.net.xml.gz"/>
    <weights-prefix value="random_edge_priority_interval_6"/>
    <output-trip-file value="osm.res_veh.interval_6.trips.xml"/>
    <prefix value="res_veh_int6"/>
    <trip-attributes value="departLane='best'"/>
    <fringe-start-attributes value="departSpeed='max'"/>
    <vehicle-class value="passenger"/>
    <remove-loops value="True"/>
    <validate value="True"/>
    <begin value="2166.0"/>
    <end value="2526.0"/>
    <insertion-rate value="370.0"/>
</configuration>
-->

<!-- generated on 2025-07-30 17:25:02 by Eclipse SUMO duarouter Version 1.23.1
<duarouterConfiguration xmlns:xsi="http://www.w3.org/2001/XMLSchema-instance" xsi:noNamespaceSchemaLocation="http://sumo.dlr.de/xsd/duarouterConfiguration.xsd">

    <input>
        <net-file value="osm.net.xml.gz"/>
        <route-files value="osm.res_veh.interval_6.trips.xml"/>
    </input>

    <output>
        <output-file value="osm.res_veh.interval_6.trips.xml.tmp"/>
        <alternatives-output value="NUL"/>
        <write-trips value="true"/>
    </output>

    <processing>
        <remove-loops value="true"/>
    </processing>

    <time>
        <begin value="2166.0"/>
        <end value="2526.0"/>
    </time>

    <report>
        <no-warnings value="true"/>
        <ignore-errors value="true"/>
        <no-step-log value="true"/>
    </report>

</duarouterConfiguration>
-->

<routes xmlns:xsi="http://www.w3.org/2001/XMLSchema-instance" xsi:noNamespaceSchemaLocation="http://sumo.dlr.de/xsd/routes_file.xsd">
    <vType id="res_veh_int6_passenger" vClass="passenger"/>
    <trip id="res_veh_int61" type="res_veh_int6_passenger" depart="2175.73" departLane="best" departSpeed="max" from="E22" to="E18.410"/>
    <trip id="res_veh_int62" type="res_veh_int6_passenger" depart="2185.46" departLane="best" departSpeed="max" from="E30" to="E30.558"/>
    <trip id="res_veh_int63" type="res_veh_int6_passenger" depart="2195.19" departLane="best" departSpeed="max" from="E31" to="E18.410"/>
    <trip id="res_veh_int64" type="res_veh_int6_passenger" depart="2204.92" departLane="best" departSpeed="max" from="E22" to="E18.410"/>
    <trip id="res_veh_int66" type="res_veh_int6_passenger" depart="2224.38" departLane="best" departSpeed="max" from="E18" to="E18.410"/>
    <trip id="res_veh_int67" type="res_veh_int6_passenger" depart="2234.11" departLane="best" departSpeed="max" from="E30" to="E30.558"/>
    <trip id="res_veh_int69" type="res_veh_int6_passenger" depart="2253.57" departLane="best" departSpeed="max" from="E31" to="E18.410"/>
    <trip id="res_veh_int610" type="res_veh_int6_passenger" depart="2263.30" departLane="best" departSpeed="max" from="E31" to="E30.558"/>
    <trip id="res_veh_int611" type="res_veh_int6_passenger" depart="2273.03" departLane="best" departSpeed="max" from="E22" to="E18.410"/>
    <trip id="res_veh_int613" type="res_veh_int6_passenger" depart="2292.49" departLane="best" departSpeed="max" from="E18" to="E18.410"/>
    <trip id="res_veh_int614" type="res_veh_int6_passenger" depart="2302.22" departLane="best" departSpeed="max" from="E31" to="E30.558"/>
    <trip id="res_veh_int615" type="res_veh_int6_passenger" depart="2311.95" departLane="best" departSpeed="max" from="E31" to="E30.558"/>
    <trip id="res_veh_int616" type="res_veh_int6_passenger" depart="2321.68" departLane="best" departSpeed="max" from="E30" to="E31.622"/>
    <trip id="res_veh_int617" type="res_veh_int6_passenger" depart="2331.41" departLane="best" departSpeed="max" from="E22" to="E30.558"/>
    <trip id="res_veh_int618" type="res_veh_int6_passenger" depart="2341.14" departLane="best" departSpeed="max" from="E31" to="E30.558"/>
    <trip id="res_veh_int619" type="res_veh_int6_passenger" depart="2350.86" departLane="best" departSpeed="max" from="E31" to="E30.558"/>
    <trip id="res_veh_int621" type="res_veh_int6_passenger" depart="2370.32" departLane="best" departSpeed="max" from="E18" to="E22.488"/>
    <trip id="res_veh_int622" type="res_veh_int6_passenger" depart="2380.05" departLane="best" departSpeed="max" from="E18" to="E18.410"/>
    <trip id="res_veh_int623" type="res_veh_int6_passenger" depart="2389.78" departLane="best" departSpeed="max" from="E18" to="E22.488"/>
    <trip id="res_veh_int624" type="res_veh_int6_passenger" depart="2399.51" departLane="best" departSpeed="max" from="E30" to="E22.488"/>
    <trip id="res_veh_int625" type="res_veh_int6_passenger" depart="2409.24" departLane="best" departSpeed="max" from="E22" to="E18.410"/>
    <trip id="res_veh_int627" type="res_veh_int6_passenger" depart="2428.70" departLane="best" departSpeed="max" from="E30" to="E30.558"/>
    <trip id="res_veh_int629" type="res_veh_int6_passenger" depart="2448.16" departLane="best" departSpeed="max" from="E18" to="E22.488"/>
    <trip id="res_veh_int630" type="res_veh_int6_passenger" depart="2457.89" departLane="best" departSpeed="max" from="E31" to="E30.558"/>
    <trip id="res_veh_int631" type="res_veh_int6_passenger" depart="2467.62" departLane="best" departSpeed="max" from="E30" to="E30.558"/>
    <trip id="res_veh_int632" type="res_veh_int6_passenger" depart="2477.35" departLane="best" departSpeed="max" from="E31" to="E31.622"/>
    <trip id="res_veh_int633" type="res_veh_int6_passenger" depart="2487.08" departLane="best" departSpeed="max" from="E18" to="E18.410"/>
    <trip id="res_veh_int634" type="res_veh_int6_passenger" depart="2496.81" departLane="best" departSpeed="max" from="E22" to="E22.488"/>
    <trip id="res_veh_int635" type="res_veh_int6_passenger" depart="2506.54" departLane="best" departSpeed="max" from="E18" to="E31.622"/>
</routes>
