<?xml version="1.0" encoding="UTF-8"?>

<!-- generated on 2025-07-30 17:24:54.222558 by randomTrips.py v1_23_1+0000-676720d13f6
<configuration>
    <net-file value="osm.net.xml.gz"/>
    <weights-prefix value="random_edge_priority_interval_6"/>
    <output-trip-file value="osm.res_motorcycle.interval_6.trips.xml"/>
    <prefix value="res_motorcycle_int6"/>
    <trip-attributes value="departLane='best'"/>
    <fringe-start-attributes value="departSpeed='max'"/>
    <vehicle-class value="motorcycle"/>
    <vclass value="motorcycle"/>
    <remove-loops value="True"/>
    <validate value="True"/>
    <begin value="2166.0"/>
    <end value="2526.0"/>
    <insertion-rate value="1500.0"/>
</configuration>
-->

<!-- generated on 2025-07-30 17:24:54 by Eclipse SUMO duarouter Version 1.23.1
<duarouterConfiguration xmlns:xsi="http://www.w3.org/2001/XMLSchema-instance" xsi:noNamespaceSchemaLocation="http://sumo.dlr.de/xsd/duarouterConfiguration.xsd">

    <input>
        <net-file value="osm.net.xml.gz"/>
        <route-files value="osm.res_motorcycle.interval_6.trips.xml"/>
    </input>

    <output>
        <output-file value="osm.res_motorcycle.interval_6.trips.xml.tmp"/>
        <alternatives-output value="NUL"/>
        <write-trips value="true"/>
    </output>

    <processing>
        <remove-loops value="true"/>
    </processing>

    <time>
        <begin value="2166.0"/>
        <end value="2526.0"/>
    </time>

    <report>
        <no-warnings value="true"/>
        <ignore-errors value="true"/>
        <no-step-log value="true"/>
    </report>

</duarouterConfiguration>
-->

<routes xmlns:xsi="http://www.w3.org/2001/XMLSchema-instance" xsi:noNamespaceSchemaLocation="http://sumo.dlr.de/xsd/routes_file.xsd">
    <vType id="res_motorcycle_int6_motorcycle" vClass="motorcycle"/>
    <trip id="res_motorcycle_int61" type="res_motorcycle_int6_motorcycle" depart="2168.40" departLane="best" departSpeed="max" from="E22" to="E18.410"/>
    <trip id="res_motorcycle_int62" type="res_motorcycle_int6_motorcycle" depart="2170.80" departLane="best" departSpeed="max" from="E30" to="E30.558"/>
    <trip id="res_motorcycle_int63" type="res_motorcycle_int6_motorcycle" depart="2173.20" departLane="best" departSpeed="max" from="E31" to="E18.410"/>
    <trip id="res_motorcycle_int64" type="res_motorcycle_int6_motorcycle" depart="2175.60" departLane="best" departSpeed="max" from="E22" to="E18.410"/>
    <trip id="res_motorcycle_int66" type="res_motorcycle_int6_motorcycle" depart="2180.40" departLane="best" departSpeed="max" from="E18" to="E18.410"/>
    <trip id="res_motorcycle_int67" type="res_motorcycle_int6_motorcycle" depart="2182.80" departLane="best" departSpeed="max" from="E30" to="E30.558"/>
    <trip id="res_motorcycle_int69" type="res_motorcycle_int6_motorcycle" depart="2187.60" departLane="best" departSpeed="max" from="E31" to="E18.410"/>
    <trip id="res_motorcycle_int610" type="res_motorcycle_int6_motorcycle" depart="2190.00" departLane="best" departSpeed="max" from="E31" to="E30.558"/>
    <trip id="res_motorcycle_int611" type="res_motorcycle_int6_motorcycle" depart="2192.40" departLane="best" departSpeed="max" from="E22" to="E18.410"/>
    <trip id="res_motorcycle_int613" type="res_motorcycle_int6_motorcycle" depart="2197.20" departLane="best" departSpeed="max" from="E18" to="E18.410"/>
    <trip id="res_motorcycle_int614" type="res_motorcycle_int6_motorcycle" depart="2199.60" departLane="best" departSpeed="max" from="E31" to="E30.558"/>
    <trip id="res_motorcycle_int615" type="res_motorcycle_int6_motorcycle" depart="2202.00" departLane="best" departSpeed="max" from="E31" to="E30.558"/>
    <trip id="res_motorcycle_int616" type="res_motorcycle_int6_motorcycle" depart="2204.40" departLane="best" departSpeed="max" from="E30" to="E31.622"/>
    <trip id="res_motorcycle_int617" type="res_motorcycle_int6_motorcycle" depart="2206.80" departLane="best" departSpeed="max" from="E22" to="E30.558"/>
    <trip id="res_motorcycle_int618" type="res_motorcycle_int6_motorcycle" depart="2209.20" departLane="best" departSpeed="max" from="E31" to="E30.558"/>
    <trip id="res_motorcycle_int619" type="res_motorcycle_int6_motorcycle" depart="2211.60" departLane="best" departSpeed="max" from="E31" to="E30.558"/>
    <trip id="res_motorcycle_int621" type="res_motorcycle_int6_motorcycle" depart="2216.40" departLane="best" departSpeed="max" from="E18" to="E22.488"/>
    <trip id="res_motorcycle_int622" type="res_motorcycle_int6_motorcycle" depart="2218.80" departLane="best" departSpeed="max" from="E18" to="E18.410"/>
    <trip id="res_motorcycle_int623" type="res_motorcycle_int6_motorcycle" depart="2221.20" departLane="best" departSpeed="max" from="E18" to="E22.488"/>
    <trip id="res_motorcycle_int624" type="res_motorcycle_int6_motorcycle" depart="2223.60" departLane="best" departSpeed="max" from="E30" to="E22.488"/>
    <trip id="res_motorcycle_int625" type="res_motorcycle_int6_motorcycle" depart="2226.00" departLane="best" departSpeed="max" from="E22" to="E18.410"/>
    <trip id="res_motorcycle_int627" type="res_motorcycle_int6_motorcycle" depart="2230.80" departLane="best" departSpeed="max" from="E30" to="E30.558"/>
    <trip id="res_motorcycle_int629" type="res_motorcycle_int6_motorcycle" depart="2235.60" departLane="best" departSpeed="max" from="E18" to="E22.488"/>
    <trip id="res_motorcycle_int630" type="res_motorcycle_int6_motorcycle" depart="2238.00" departLane="best" departSpeed="max" from="E31" to="E30.558"/>
    <trip id="res_motorcycle_int631" type="res_motorcycle_int6_motorcycle" depart="2240.40" departLane="best" departSpeed="max" from="E30" to="E30.558"/>
    <trip id="res_motorcycle_int632" type="res_motorcycle_int6_motorcycle" depart="2242.80" departLane="best" departSpeed="max" from="E31" to="E31.622"/>
    <trip id="res_motorcycle_int633" type="res_motorcycle_int6_motorcycle" depart="2245.20" departLane="best" departSpeed="max" from="E18" to="E18.410"/>
    <trip id="res_motorcycle_int634" type="res_motorcycle_int6_motorcycle" depart="2247.60" departLane="best" departSpeed="max" from="E22" to="E22.488"/>
    <trip id="res_motorcycle_int635" type="res_motorcycle_int6_motorcycle" depart="2250.00" departLane="best" departSpeed="max" from="E18" to="E31.622"/>
    <trip id="res_motorcycle_int637" type="res_motorcycle_int6_motorcycle" depart="2254.80" departLane="best" departSpeed="max" from="E30" to="E22.488"/>
    <trip id="res_motorcycle_int639" type="res_motorcycle_int6_motorcycle" depart="2259.60" departLane="best" departSpeed="max" from="E22" to="E18.410"/>
    <trip id="res_motorcycle_int640" type="res_motorcycle_int6_motorcycle" depart="2262.00" departLane="best" departSpeed="max" from="E30" to="E22.488"/>
    <trip id="res_motorcycle_int641" type="res_motorcycle_int6_motorcycle" depart="2264.40" departLane="best" departSpeed="max" from="E30" to="E31.622"/>
    <trip id="res_motorcycle_int642" type="res_motorcycle_int6_motorcycle" depart="2266.80" departLane="best" departSpeed="max" from="E22" to="E18.410"/>
    <trip id="res_motorcycle_int643" type="res_motorcycle_int6_motorcycle" depart="2269.20" departLane="best" departSpeed="max" from="E31" to="E30.558"/>
    <trip id="res_motorcycle_int644" type="res_motorcycle_int6_motorcycle" depart="2271.60" departLane="best" departSpeed="max" from="E18" to="E18.410"/>
    <trip id="res_motorcycle_int647" type="res_motorcycle_int6_motorcycle" depart="2278.80" departLane="best" departSpeed="max" from="E18" to="E22.488"/>
    <trip id="res_motorcycle_int648" type="res_motorcycle_int6_motorcycle" depart="2281.20" departLane="best" departSpeed="max" from="E31" to="E30.558"/>
    <trip id="res_motorcycle_int649" type="res_motorcycle_int6_motorcycle" depart="2283.60" departLane="best" departSpeed="max" from="E31" to="E31.622"/>
    <trip id="res_motorcycle_int651" type="res_motorcycle_int6_motorcycle" depart="2288.40" departLane="best" departSpeed="max" from="E30" to="E30.558"/>
    <trip id="res_motorcycle_int652" type="res_motorcycle_int6_motorcycle" depart="2290.80" departLane="best" departSpeed="max" from="E22" to="E30.558"/>
    <trip id="res_motorcycle_int653" type="res_motorcycle_int6_motorcycle" depart="2293.20" departLane="best" departSpeed="max" from="E18" to="E22.488"/>
    <trip id="res_motorcycle_int657" type="res_motorcycle_int6_motorcycle" depart="2302.80" departLane="best" departSpeed="max" from="E31" to="E31.622"/>
    <trip id="res_motorcycle_int658" type="res_motorcycle_int6_motorcycle" depart="2305.20" departLane="best" departSpeed="max" from="E22" to="E30.558"/>
    <trip id="res_motorcycle_int660" type="res_motorcycle_int6_motorcycle" depart="2310.00" departLane="best" departSpeed="max" from="E31" to="E30.558"/>
    <trip id="res_motorcycle_int661" type="res_motorcycle_int6_motorcycle" depart="2312.40" departLane="best" departSpeed="max" from="E31" to="E30.558"/>
    <trip id="res_motorcycle_int662" type="res_motorcycle_int6_motorcycle" depart="2314.80" departLane="best" departSpeed="max" from="E18" to="E22.488"/>
    <trip id="res_motorcycle_int663" type="res_motorcycle_int6_motorcycle" depart="2317.20" departLane="best" departSpeed="max" from="E18" to="E31.622"/>
    <trip id="res_motorcycle_int664" type="res_motorcycle_int6_motorcycle" depart="2319.60" departLane="best" departSpeed="max" from="E31" to="E31.622"/>
    <trip id="res_motorcycle_int665" type="res_motorcycle_int6_motorcycle" depart="2322.00" departLane="best" departSpeed="max" from="E22" to="E18.410"/>
    <trip id="res_motorcycle_int666" type="res_motorcycle_int6_motorcycle" depart="2324.40" departLane="best" departSpeed="max" from="E31" to="E31.622"/>
    <trip id="res_motorcycle_int667" type="res_motorcycle_int6_motorcycle" depart="2326.80" departLane="best" departSpeed="max" from="E18" to="E22.488"/>
    <trip id="res_motorcycle_int668" type="res_motorcycle_int6_motorcycle" depart="2329.20" departLane="best" departSpeed="max" from="E18" to="E31.622"/>
    <trip id="res_motorcycle_int669" type="res_motorcycle_int6_motorcycle" depart="2331.60" departLane="best" departSpeed="max" from="E31" to="E18.410"/>
    <trip id="res_motorcycle_int670" type="res_motorcycle_int6_motorcycle" depart="2334.00" departLane="best" departSpeed="max" from="E22" to="E30.558"/>
    <trip id="res_motorcycle_int672" type="res_motorcycle_int6_motorcycle" depart="2338.80" departLane="best" departSpeed="max" from="E22" to="E18.410"/>
    <trip id="res_motorcycle_int673" type="res_motorcycle_int6_motorcycle" depart="2341.20" departLane="best" departSpeed="max" from="E30" to="E30.558"/>
    <trip id="res_motorcycle_int674" type="res_motorcycle_int6_motorcycle" depart="2343.60" departLane="best" departSpeed="max" from="E18" to="E22.488"/>
    <trip id="res_motorcycle_int675" type="res_motorcycle_int6_motorcycle" depart="2346.00" departLane="best" departSpeed="max" from="E31" to="E30.558"/>
    <trip id="res_motorcycle_int676" type="res_motorcycle_int6_motorcycle" depart="2348.40" departLane="best" departSpeed="max" from="E22" to="E30.558"/>
    <trip id="res_motorcycle_int677" type="res_motorcycle_int6_motorcycle" depart="2350.80" departLane="best" departSpeed="max" from="E18" to="E18.410"/>
    <trip id="res_motorcycle_int678" type="res_motorcycle_int6_motorcycle" depart="2353.20" departLane="best" departSpeed="max" from="E22" to="E30.558"/>
    <trip id="res_motorcycle_int679" type="res_motorcycle_int6_motorcycle" depart="2355.60" departLane="best" departSpeed="max" from="E18" to="E18.410"/>
    <trip id="res_motorcycle_int681" type="res_motorcycle_int6_motorcycle" depart="2360.40" departLane="best" departSpeed="max" from="E18" to="E31.622"/>
    <trip id="res_motorcycle_int682" type="res_motorcycle_int6_motorcycle" depart="2362.80" departLane="best" departSpeed="max" from="E31" to="E18.410"/>
    <trip id="res_motorcycle_int684" type="res_motorcycle_int6_motorcycle" depart="2367.60" departLane="best" departSpeed="max" from="E18" to="E18.410"/>
    <trip id="res_motorcycle_int685" type="res_motorcycle_int6_motorcycle" depart="2370.00" departLane="best" departSpeed="max" from="E31" to="E30.558"/>
    <trip id="res_motorcycle_int687" type="res_motorcycle_int6_motorcycle" depart="2374.80" departLane="best" departSpeed="max" from="E31" to="E18.410"/>
    <trip id="res_motorcycle_int688" type="res_motorcycle_int6_motorcycle" depart="2377.20" departLane="best" departSpeed="max" from="E18" to="E22.488"/>
    <trip id="res_motorcycle_int689" type="res_motorcycle_int6_motorcycle" depart="2379.60" departLane="best" departSpeed="max" from="E22" to="E22.488"/>
    <trip id="res_motorcycle_int690" type="res_motorcycle_int6_motorcycle" depart="2382.00" departLane="best" departSpeed="max" from="E30" to="E30.558"/>
    <trip id="res_motorcycle_int691" type="res_motorcycle_int6_motorcycle" depart="2384.40" departLane="best" departSpeed="max" from="E31" to="E18.410"/>
    <trip id="res_motorcycle_int692" type="res_motorcycle_int6_motorcycle" depart="2386.80" departLane="best" departSpeed="max" from="E22" to="E22.488"/>
    <trip id="res_motorcycle_int693" type="res_motorcycle_int6_motorcycle" depart="2389.20" departLane="best" departSpeed="max" from="E31" to="E18.410"/>
    <trip id="res_motorcycle_int694" type="res_motorcycle_int6_motorcycle" depart="2391.60" departLane="best" departSpeed="max" from="E18" to="E22.488"/>
    <trip id="res_motorcycle_int695" type="res_motorcycle_int6_motorcycle" depart="2394.00" departLane="best" departSpeed="max" from="E22" to="E22.488"/>
    <trip id="res_motorcycle_int696" type="res_motorcycle_int6_motorcycle" depart="2396.40" departLane="best" departSpeed="max" from="E18" to="E31.622"/>
    <trip id="res_motorcycle_int699" type="res_motorcycle_int6_motorcycle" depart="2403.60" departLane="best" departSpeed="max" from="E31" to="E31.622"/>
    <trip id="res_motorcycle_int6100" type="res_motorcycle_int6_motorcycle" depart="2406.00" departLane="best" departSpeed="max" from="E31" to="E31.622"/>
    <trip id="res_motorcycle_int6101" type="res_motorcycle_int6_motorcycle" depart="2408.40" departLane="best" departSpeed="max" from="E31" to="E18.410"/>
    <trip id="res_motorcycle_int6102" type="res_motorcycle_int6_motorcycle" depart="2410.80" departLane="best" departSpeed="max" from="E22" to="E18.410"/>
    <trip id="res_motorcycle_int6103" type="res_motorcycle_int6_motorcycle" depart="2413.20" departLane="best" departSpeed="max" from="E22" to="E18.410"/>
    <trip id="res_motorcycle_int6106" type="res_motorcycle_int6_motorcycle" depart="2420.40" departLane="best" departSpeed="max" from="E22" to="E22.488"/>
    <trip id="res_motorcycle_int6107" type="res_motorcycle_int6_motorcycle" depart="2422.80" departLane="best" departSpeed="max" from="E31" to="E31.622"/>
    <trip id="res_motorcycle_int6108" type="res_motorcycle_int6_motorcycle" depart="2425.20" departLane="best" departSpeed="max" from="E30" to="E30.558"/>
    <trip id="res_motorcycle_int6109" type="res_motorcycle_int6_motorcycle" depart="2427.60" departLane="best" departSpeed="max" from="E18" to="E22.488"/>
    <trip id="res_motorcycle_int6110" type="res_motorcycle_int6_motorcycle" depart="2430.00" departLane="best" departSpeed="max" from="E31" to="E30.558"/>
    <trip id="res_motorcycle_int6111" type="res_motorcycle_int6_motorcycle" depart="2432.40" departLane="best" departSpeed="max" from="E30" to="E30.558"/>
    <trip id="res_motorcycle_int6113" type="res_motorcycle_int6_motorcycle" depart="2437.20" departLane="best" departSpeed="max" from="E30" to="E31.622"/>
    <trip id="res_motorcycle_int6114" type="res_motorcycle_int6_motorcycle" depart="2439.60" departLane="best" departSpeed="max" from="E18" to="E31.622"/>
    <trip id="res_motorcycle_int6115" type="res_motorcycle_int6_motorcycle" depart="2442.00" departLane="best" departSpeed="max" from="E18" to="E18.410"/>
    <trip id="res_motorcycle_int6116" type="res_motorcycle_int6_motorcycle" depart="2444.40" departLane="best" departSpeed="max" from="E30" to="E30.558"/>
    <trip id="res_motorcycle_int6117" type="res_motorcycle_int6_motorcycle" depart="2446.80" departLane="best" departSpeed="max" from="E18" to="E18.410"/>
    <trip id="res_motorcycle_int6118" type="res_motorcycle_int6_motorcycle" depart="2449.20" departLane="best" departSpeed="max" from="E31" to="E18.410"/>
    <trip id="res_motorcycle_int6119" type="res_motorcycle_int6_motorcycle" depart="2451.60" departLane="best" departSpeed="max" from="E30" to="E30.558"/>
    <trip id="res_motorcycle_int6120" type="res_motorcycle_int6_motorcycle" depart="2454.00" departLane="best" departSpeed="max" from="E22" to="E30.558"/>
    <trip id="res_motorcycle_int6121" type="res_motorcycle_int6_motorcycle" depart="2456.40" departLane="best" departSpeed="max" from="E30" to="E31.622"/>
    <trip id="res_motorcycle_int6123" type="res_motorcycle_int6_motorcycle" depart="2461.20" departLane="best" departSpeed="max" from="E18" to="E22.488"/>
    <trip id="res_motorcycle_int6124" type="res_motorcycle_int6_motorcycle" depart="2463.60" departLane="best" departSpeed="max" from="E30" to="E22.488"/>
    <trip id="res_motorcycle_int6126" type="res_motorcycle_int6_motorcycle" depart="2468.40" departLane="best" departSpeed="max" from="E18" to="E22.488"/>
    <trip id="res_motorcycle_int6127" type="res_motorcycle_int6_motorcycle" depart="2470.80" departLane="best" departSpeed="max" from="E31" to="E31.622"/>
    <trip id="res_motorcycle_int6128" type="res_motorcycle_int6_motorcycle" depart="2473.20" departLane="best" departSpeed="max" from="E18" to="E18.410"/>
    <trip id="res_motorcycle_int6130" type="res_motorcycle_int6_motorcycle" depart="2478.00" departLane="best" departSpeed="max" from="E31" to="E31.622"/>
    <trip id="res_motorcycle_int6131" type="res_motorcycle_int6_motorcycle" depart="2480.40" departLane="best" departSpeed="max" from="E22" to="E18.410"/>
    <trip id="res_motorcycle_int6132" type="res_motorcycle_int6_motorcycle" depart="2482.80" departLane="best" departSpeed="max" from="E31" to="E30.558"/>
    <trip id="res_motorcycle_int6133" type="res_motorcycle_int6_motorcycle" depart="2485.20" departLane="best" departSpeed="max" from="E30" to="E31.622"/>
    <trip id="res_motorcycle_int6136" type="res_motorcycle_int6_motorcycle" depart="2492.40" departLane="best" departSpeed="max" from="E30" to="E31.622"/>
    <trip id="res_motorcycle_int6137" type="res_motorcycle_int6_motorcycle" depart="2494.80" departLane="best" departSpeed="max" from="E18" to="E18.410"/>
    <trip id="res_motorcycle_int6139" type="res_motorcycle_int6_motorcycle" depart="2499.60" departLane="best" departSpeed="max" from="E22" to="E30.558"/>
    <trip id="res_motorcycle_int6141" type="res_motorcycle_int6_motorcycle" depart="2504.40" departLane="best" departSpeed="max" from="E30" to="E22.488"/>
    <trip id="res_motorcycle_int6143" type="res_motorcycle_int6_motorcycle" depart="2509.20" departLane="best" departSpeed="max" from="E31" to="E18.410"/>
    <trip id="res_motorcycle_int6144" type="res_motorcycle_int6_motorcycle" depart="2511.60" departLane="best" departSpeed="max" from="E22" to="E22.488"/>
    <trip id="res_motorcycle_int6145" type="res_motorcycle_int6_motorcycle" depart="2514.00" departLane="best" departSpeed="max" from="E18" to="E31.622"/>
    <trip id="res_motorcycle_int6146" type="res_motorcycle_int6_motorcycle" depart="2516.40" departLane="best" departSpeed="max" from="E30" to="E22.488"/>
    <trip id="res_motorcycle_int6147" type="res_motorcycle_int6_motorcycle" depart="2518.80" departLane="best" departSpeed="max" from="E30" to="E30.558"/>
    <trip id="res_motorcycle_int6148" type="res_motorcycle_int6_motorcycle" depart="2521.20" departLane="best" departSpeed="max" from="E22" to="E18.410"/>
    <trip id="res_motorcycle_int6149" type="res_motorcycle_int6_motorcycle" depart="2523.60" departLane="best" departSpeed="max" from="E18" to="E31.622"/>
</routes>
