<?xml version="1.0" encoding="UTF-8"?>

<!-- generated on 2025-07-31 11:09:55.209932 by randomTrips.py v1_23_1+0000-676720d13f6
<configuration>
    <net-file value="osm.net.xml.gz"/>
    <weights-prefix value="random_edge_priority_interval_5"/>
    <output-trip-file value="osm.res_motorcycle.interval_5.trips.xml"/>
    <prefix value="res_motorcycle_int5"/>
    <trip-attributes value="departLane='best'"/>
    <fringe-start-attributes value="departSpeed='max'"/>
    <vehicle-class value="motorcycle"/>
    <vclass value="motorcycle"/>
    <remove-loops value="True"/>
    <validate value="True"/>
    <begin value="1805.0"/>
    <end value="2165.0"/>
    <insertion-rate value="1500.0"/>
</configuration>
-->

<!-- generated on 2025-07-31 11:09:55 by Eclipse SUMO duarouter Version 1.23.1
<duarouterConfiguration xmlns:xsi="http://www.w3.org/2001/XMLSchema-instance" xsi:noNamespaceSchemaLocation="http://sumo.dlr.de/xsd/duarouterConfiguration.xsd">

    <input>
        <net-file value="osm.net.xml.gz"/>
        <route-files value="osm.res_motorcycle.interval_5.trips.xml"/>
    </input>

    <output>
        <output-file value="osm.res_motorcycle.interval_5.trips.xml.tmp"/>
        <alternatives-output value="NUL"/>
        <write-trips value="true"/>
    </output>

    <processing>
        <remove-loops value="true"/>
    </processing>

    <time>
        <begin value="1805.0"/>
        <end value="2165.0"/>
    </time>

    <report>
        <no-warnings value="true"/>
        <ignore-errors value="true"/>
        <no-step-log value="true"/>
    </report>

</duarouterConfiguration>
-->

<routes xmlns:xsi="http://www.w3.org/2001/XMLSchema-instance" xsi:noNamespaceSchemaLocation="http://sumo.dlr.de/xsd/routes_file.xsd">
    <vType id="res_motorcycle_int5_motorcycle" vClass="motorcycle"/>
    <trip id="res_motorcycle_int51" type="res_motorcycle_int5_motorcycle" depart="1807.40" departLane="best" departSpeed="max" from="E18" to="E18.410"/>
    <trip id="res_motorcycle_int52" type="res_motorcycle_int5_motorcycle" depart="1809.80" departLane="best" departSpeed="max" from="E30" to="E30.558"/>
    <trip id="res_motorcycle_int53" type="res_motorcycle_int5_motorcycle" depart="1812.20" departLane="best" departSpeed="max" from="E31" to="E18.410"/>
    <trip id="res_motorcycle_int54" type="res_motorcycle_int5_motorcycle" depart="1814.60" departLane="best" departSpeed="max" from="E22" to="E18.410"/>
    <trip id="res_motorcycle_int56" type="res_motorcycle_int5_motorcycle" depart="1819.40" departLane="best" departSpeed="max" from="E18" to="E18.410"/>
    <trip id="res_motorcycle_int57" type="res_motorcycle_int5_motorcycle" depart="1821.80" departLane="best" departSpeed="max" from="E30" to="E30.558"/>
    <trip id="res_motorcycle_int510" type="res_motorcycle_int5_motorcycle" depart="1829.00" departLane="best" departSpeed="max" from="E30" to="E30.558"/>
    <trip id="res_motorcycle_int511" type="res_motorcycle_int5_motorcycle" depart="1831.40" departLane="best" departSpeed="max" from="E18" to="E18.410"/>
    <trip id="res_motorcycle_int513" type="res_motorcycle_int5_motorcycle" depart="1836.20" departLane="best" departSpeed="max" from="E18" to="E18.410"/>
    <trip id="res_motorcycle_int514" type="res_motorcycle_int5_motorcycle" depart="1838.60" departLane="best" departSpeed="max" from="E30" to="E30.558"/>
    <trip id="res_motorcycle_int515" type="res_motorcycle_int5_motorcycle" depart="1841.00" departLane="best" departSpeed="max" from="E30" to="E30.558"/>
    <trip id="res_motorcycle_int518" type="res_motorcycle_int5_motorcycle" depart="1848.20" departLane="best" departSpeed="max" from="E30" to="E30.558"/>
    <trip id="res_motorcycle_int519" type="res_motorcycle_int5_motorcycle" depart="1850.60" departLane="best" departSpeed="max" from="E30" to="E30.558"/>
    <trip id="res_motorcycle_int521" type="res_motorcycle_int5_motorcycle" depart="1855.40" departLane="best" departSpeed="max" from="E18" to="E22.488"/>
    <trip id="res_motorcycle_int522" type="res_motorcycle_int5_motorcycle" depart="1857.80" departLane="best" departSpeed="max" from="E18" to="E18.410"/>
    <trip id="res_motorcycle_int523" type="res_motorcycle_int5_motorcycle" depart="1860.20" departLane="best" departSpeed="max" from="E18" to="E22.488"/>
    <trip id="res_motorcycle_int524" type="res_motorcycle_int5_motorcycle" depart="1862.60" departLane="best" departSpeed="max" from="E30" to="E22.488"/>
    <trip id="res_motorcycle_int525" type="res_motorcycle_int5_motorcycle" depart="1865.00" departLane="best" departSpeed="max" from="E18" to="E18.410"/>
    <trip id="res_motorcycle_int526" type="res_motorcycle_int5_motorcycle" depart="1867.40" departLane="best" departSpeed="max" from="E18" to="E31.622"/>
    <trip id="res_motorcycle_int527" type="res_motorcycle_int5_motorcycle" depart="1869.80" departLane="best" departSpeed="max" from="E30" to="E30.558"/>
    <trip id="res_motorcycle_int529" type="res_motorcycle_int5_motorcycle" depart="1874.60" departLane="best" departSpeed="max" from="E18" to="E22.488"/>
    <trip id="res_motorcycle_int530" type="res_motorcycle_int5_motorcycle" depart="1877.00" departLane="best" departSpeed="max" from="E31" to="E30.558"/>
    <trip id="res_motorcycle_int531" type="res_motorcycle_int5_motorcycle" depart="1879.40" departLane="best" departSpeed="max" from="E30" to="E30.558"/>
    <trip id="res_motorcycle_int532" type="res_motorcycle_int5_motorcycle" depart="1881.80" departLane="best" departSpeed="max" from="E30" to="E31.622"/>
    <trip id="res_motorcycle_int533" type="res_motorcycle_int5_motorcycle" depart="1884.20" departLane="best" departSpeed="max" from="E18" to="E18.410"/>
    <trip id="res_motorcycle_int534" type="res_motorcycle_int5_motorcycle" depart="1886.60" departLane="best" departSpeed="max" from="E18" to="E22.488"/>
    <trip id="res_motorcycle_int535" type="res_motorcycle_int5_motorcycle" depart="1889.00" departLane="best" departSpeed="max" from="E18" to="E31.622"/>
    <trip id="res_motorcycle_int536" type="res_motorcycle_int5_motorcycle" depart="1891.40" departLane="best" departSpeed="max" from="E30" to="E22.488"/>
    <trip id="res_motorcycle_int537" type="res_motorcycle_int5_motorcycle" depart="1893.80" departLane="best" departSpeed="max" from="E30" to="E22.488"/>
    <trip id="res_motorcycle_int539" type="res_motorcycle_int5_motorcycle" depart="1898.60" departLane="best" departSpeed="max" from="E18" to="E18.410"/>
    <trip id="res_motorcycle_int540" type="res_motorcycle_int5_motorcycle" depart="1901.00" departLane="best" departSpeed="max" from="E30" to="E22.488"/>
    <trip id="res_motorcycle_int541" type="res_motorcycle_int5_motorcycle" depart="1903.40" departLane="best" departSpeed="max" from="E30" to="E31.622"/>
    <trip id="res_motorcycle_int542" type="res_motorcycle_int5_motorcycle" depart="1905.80" departLane="best" departSpeed="max" from="E18" to="E18.410"/>
    <trip id="res_motorcycle_int543" type="res_motorcycle_int5_motorcycle" depart="1908.20" departLane="best" departSpeed="max" from="E31" to="E30.558"/>
    <trip id="res_motorcycle_int544" type="res_motorcycle_int5_motorcycle" depart="1910.60" departLane="best" departSpeed="max" from="E18" to="E18.410"/>
    <trip id="res_motorcycle_int546" type="res_motorcycle_int5_motorcycle" depart="1915.40" departLane="best" departSpeed="max" from="E30" to="E22.488"/>
    <trip id="res_motorcycle_int547" type="res_motorcycle_int5_motorcycle" depart="1917.80" departLane="best" departSpeed="max" from="E18" to="E22.488"/>
    <trip id="res_motorcycle_int548" type="res_motorcycle_int5_motorcycle" depart="1920.20" departLane="best" departSpeed="max" from="E31" to="E30.558"/>
    <trip id="res_motorcycle_int549" type="res_motorcycle_int5_motorcycle" depart="1922.60" departLane="best" departSpeed="max" from="E31" to="E31.622"/>
    <trip id="res_motorcycle_int551" type="res_motorcycle_int5_motorcycle" depart="1927.40" departLane="best" departSpeed="max" from="E30" to="E30.558"/>
    <trip id="res_motorcycle_int553" type="res_motorcycle_int5_motorcycle" depart="1932.20" departLane="best" departSpeed="max" from="E18" to="E22.488"/>
    <trip id="res_motorcycle_int555" type="res_motorcycle_int5_motorcycle" depart="1937.00" departLane="best" departSpeed="max" from="E30" to="E22.488"/>
    <trip id="res_motorcycle_int556" type="res_motorcycle_int5_motorcycle" depart="1939.40" departLane="best" departSpeed="max" from="E22" to="E18.410"/>
    <trip id="res_motorcycle_int557" type="res_motorcycle_int5_motorcycle" depart="1941.80" departLane="best" departSpeed="max" from="E31" to="E31.622"/>
    <trip id="res_motorcycle_int560" type="res_motorcycle_int5_motorcycle" depart="1949.00" departLane="best" departSpeed="max" from="E30" to="E30.558"/>
    <trip id="res_motorcycle_int561" type="res_motorcycle_int5_motorcycle" depart="1951.40" departLane="best" departSpeed="max" from="E30" to="E30.558"/>
    <trip id="res_motorcycle_int562" type="res_motorcycle_int5_motorcycle" depart="1953.80" departLane="best" departSpeed="max" from="E18" to="E22.488"/>
    <trip id="res_motorcycle_int563" type="res_motorcycle_int5_motorcycle" depart="1956.20" departLane="best" departSpeed="max" from="E18" to="E31.622"/>
    <trip id="res_motorcycle_int564" type="res_motorcycle_int5_motorcycle" depart="1958.60" departLane="best" departSpeed="max" from="E30" to="E31.622"/>
    <trip id="res_motorcycle_int565" type="res_motorcycle_int5_motorcycle" depart="1961.00" departLane="best" departSpeed="max" from="E18" to="E18.410"/>
    <trip id="res_motorcycle_int566" type="res_motorcycle_int5_motorcycle" depart="1963.40" departLane="best" departSpeed="max" from="E30" to="E31.622"/>
    <trip id="res_motorcycle_int567" type="res_motorcycle_int5_motorcycle" depart="1965.80" departLane="best" departSpeed="max" from="E18" to="E22.488"/>
    <trip id="res_motorcycle_int568" type="res_motorcycle_int5_motorcycle" depart="1968.20" departLane="best" departSpeed="max" from="E18" to="E31.622"/>
    <trip id="res_motorcycle_int570" type="res_motorcycle_int5_motorcycle" depart="1973.00" departLane="best" departSpeed="max" from="E22" to="E30.558"/>
    <trip id="res_motorcycle_int571" type="res_motorcycle_int5_motorcycle" depart="1975.40" departLane="best" departSpeed="max" from="E18" to="E31.622"/>
    <trip id="res_motorcycle_int572" type="res_motorcycle_int5_motorcycle" depart="1977.80" departLane="best" departSpeed="max" from="E22" to="E18.410"/>
    <trip id="res_motorcycle_int573" type="res_motorcycle_int5_motorcycle" depart="1980.20" departLane="best" departSpeed="max" from="E30" to="E30.558"/>
    <trip id="res_motorcycle_int574" type="res_motorcycle_int5_motorcycle" depart="1982.60" departLane="best" departSpeed="max" from="E18" to="E22.488"/>
    <trip id="res_motorcycle_int575" type="res_motorcycle_int5_motorcycle" depart="1985.00" departLane="best" departSpeed="max" from="E31" to="E30.558"/>
    <trip id="res_motorcycle_int576" type="res_motorcycle_int5_motorcycle" depart="1987.40" departLane="best" departSpeed="max" from="E22" to="E30.558"/>
    <trip id="res_motorcycle_int577" type="res_motorcycle_int5_motorcycle" depart="1989.80" departLane="best" departSpeed="max" from="E18" to="E18.410"/>
    <trip id="res_motorcycle_int579" type="res_motorcycle_int5_motorcycle" depart="1994.60" departLane="best" departSpeed="max" from="E18" to="E18.410"/>
    <trip id="res_motorcycle_int581" type="res_motorcycle_int5_motorcycle" depart="1999.40" departLane="best" departSpeed="max" from="E18" to="E31.622"/>
    <trip id="res_motorcycle_int584" type="res_motorcycle_int5_motorcycle" depart="2006.60" departLane="best" departSpeed="max" from="E18" to="E18.410"/>
    <trip id="res_motorcycle_int585" type="res_motorcycle_int5_motorcycle" depart="2009.00" departLane="best" departSpeed="max" from="E31" to="E30.558"/>
    <trip id="res_motorcycle_int588" type="res_motorcycle_int5_motorcycle" depart="2016.20" departLane="best" departSpeed="max" from="E18" to="E22.488"/>
    <trip id="res_motorcycle_int589" type="res_motorcycle_int5_motorcycle" depart="2018.60" departLane="best" departSpeed="max" from="E22" to="E22.488"/>
    <trip id="res_motorcycle_int590" type="res_motorcycle_int5_motorcycle" depart="2021.00" departLane="best" departSpeed="max" from="E30" to="E30.558"/>
    <trip id="res_motorcycle_int591" type="res_motorcycle_int5_motorcycle" depart="2023.40" departLane="best" departSpeed="max" from="E31" to="E18.410"/>
    <trip id="res_motorcycle_int592" type="res_motorcycle_int5_motorcycle" depart="2025.80" departLane="best" departSpeed="max" from="E18" to="E22.488"/>
    <trip id="res_motorcycle_int594" type="res_motorcycle_int5_motorcycle" depart="2030.60" departLane="best" departSpeed="max" from="E18" to="E22.488"/>
    <trip id="res_motorcycle_int595" type="res_motorcycle_int5_motorcycle" depart="2033.00" departLane="best" departSpeed="max" from="E22" to="E22.488"/>
    <trip id="res_motorcycle_int596" type="res_motorcycle_int5_motorcycle" depart="2035.40" departLane="best" departSpeed="max" from="E18" to="E31.622"/>
    <trip id="res_motorcycle_int599" type="res_motorcycle_int5_motorcycle" depart="2042.60" departLane="best" departSpeed="max" from="E31" to="E31.622"/>
    <trip id="res_motorcycle_int5100" type="res_motorcycle_int5_motorcycle" depart="2045.00" departLane="best" departSpeed="max" from="E31" to="E31.622"/>
    <trip id="res_motorcycle_int5102" type="res_motorcycle_int5_motorcycle" depart="2049.80" departLane="best" departSpeed="max" from="E22" to="E18.410"/>
    <trip id="res_motorcycle_int5103" type="res_motorcycle_int5_motorcycle" depart="2052.20" departLane="best" departSpeed="max" from="E18" to="E18.410"/>
    <trip id="res_motorcycle_int5104" type="res_motorcycle_int5_motorcycle" depart="2054.60" departLane="best" departSpeed="max" from="E18" to="E31.622"/>
    <trip id="res_motorcycle_int5105" type="res_motorcycle_int5_motorcycle" depart="2057.00" departLane="best" departSpeed="max" from="E18" to="E31.622"/>
    <trip id="res_motorcycle_int5106" type="res_motorcycle_int5_motorcycle" depart="2059.40" departLane="best" departSpeed="max" from="E22" to="E22.488"/>
    <trip id="res_motorcycle_int5107" type="res_motorcycle_int5_motorcycle" depart="2061.80" departLane="best" departSpeed="max" from="E31" to="E31.622"/>
    <trip id="res_motorcycle_int5108" type="res_motorcycle_int5_motorcycle" depart="2064.20" departLane="best" departSpeed="max" from="E30" to="E30.558"/>
    <trip id="res_motorcycle_int5109" type="res_motorcycle_int5_motorcycle" depart="2066.60" departLane="best" departSpeed="max" from="E18" to="E22.488"/>
    <trip id="res_motorcycle_int5110" type="res_motorcycle_int5_motorcycle" depart="2069.00" departLane="best" departSpeed="max" from="E31" to="E30.558"/>
    <trip id="res_motorcycle_int5111" type="res_motorcycle_int5_motorcycle" depart="2071.40" departLane="best" departSpeed="max" from="E30" to="E30.558"/>
    <trip id="res_motorcycle_int5114" type="res_motorcycle_int5_motorcycle" depart="2078.60" departLane="best" departSpeed="max" from="E18" to="E31.622"/>
    <trip id="res_motorcycle_int5115" type="res_motorcycle_int5_motorcycle" depart="2081.00" departLane="best" departSpeed="max" from="E18" to="E18.410"/>
    <trip id="res_motorcycle_int5116" type="res_motorcycle_int5_motorcycle" depart="2083.40" departLane="best" departSpeed="max" from="E30" to="E30.558"/>
    <trip id="res_motorcycle_int5117" type="res_motorcycle_int5_motorcycle" depart="2085.80" departLane="best" departSpeed="max" from="E18" to="E18.410"/>
    <trip id="res_motorcycle_int5118" type="res_motorcycle_int5_motorcycle" depart="2088.20" departLane="best" departSpeed="max" from="E31" to="E18.410"/>
    <trip id="res_motorcycle_int5119" type="res_motorcycle_int5_motorcycle" depart="2090.60" departLane="best" departSpeed="max" from="E30" to="E30.558"/>
    <trip id="res_motorcycle_int5123" type="res_motorcycle_int5_motorcycle" depart="2100.20" departLane="best" departSpeed="max" from="E18" to="E22.488"/>
    <trip id="res_motorcycle_int5124" type="res_motorcycle_int5_motorcycle" depart="2102.60" departLane="best" departSpeed="max" from="E30" to="E22.488"/>
    <trip id="res_motorcycle_int5125" type="res_motorcycle_int5_motorcycle" depart="2105.00" departLane="best" departSpeed="max" from="E18" to="E31.622"/>
    <trip id="res_motorcycle_int5126" type="res_motorcycle_int5_motorcycle" depart="2107.40" departLane="best" departSpeed="max" from="E18" to="E22.488"/>
    <trip id="res_motorcycle_int5127" type="res_motorcycle_int5_motorcycle" depart="2109.80" departLane="best" departSpeed="max" from="E31" to="E31.622"/>
    <trip id="res_motorcycle_int5128" type="res_motorcycle_int5_motorcycle" depart="2112.20" departLane="best" departSpeed="max" from="E18" to="E18.410"/>
    <trip id="res_motorcycle_int5129" type="res_motorcycle_int5_motorcycle" depart="2114.60" departLane="best" departSpeed="max" from="E18" to="E31.622"/>
    <trip id="res_motorcycle_int5130" type="res_motorcycle_int5_motorcycle" depart="2117.00" departLane="best" departSpeed="max" from="E30" to="E31.622"/>
    <trip id="res_motorcycle_int5131" type="res_motorcycle_int5_motorcycle" depart="2119.40" departLane="best" departSpeed="max" from="E18" to="E18.410"/>
    <trip id="res_motorcycle_int5132" type="res_motorcycle_int5_motorcycle" depart="2121.80" departLane="best" departSpeed="max" from="E30" to="E30.558"/>
    <trip id="res_motorcycle_int5133" type="res_motorcycle_int5_motorcycle" depart="2124.20" departLane="best" departSpeed="max" from="E30" to="E31.622"/>
    <trip id="res_motorcycle_int5135" type="res_motorcycle_int5_motorcycle" depart="2129.00" departLane="best" departSpeed="max" from="E30" to="E22.488"/>
    <trip id="res_motorcycle_int5136" type="res_motorcycle_int5_motorcycle" depart="2131.40" departLane="best" departSpeed="max" from="E30" to="E31.622"/>
    <trip id="res_motorcycle_int5137" type="res_motorcycle_int5_motorcycle" depart="2133.80" departLane="best" departSpeed="max" from="E18" to="E18.410"/>
    <trip id="res_motorcycle_int5141" type="res_motorcycle_int5_motorcycle" depart="2143.40" departLane="best" departSpeed="max" from="E30" to="E22.488"/>
    <trip id="res_motorcycle_int5144" type="res_motorcycle_int5_motorcycle" depart="2150.60" departLane="best" departSpeed="max" from="E22" to="E22.488"/>
    <trip id="res_motorcycle_int5145" type="res_motorcycle_int5_motorcycle" depart="2153.00" departLane="best" departSpeed="max" from="E18" to="E31.622"/>
    <trip id="res_motorcycle_int5146" type="res_motorcycle_int5_motorcycle" depart="2155.40" departLane="best" departSpeed="max" from="E30" to="E22.488"/>
    <trip id="res_motorcycle_int5147" type="res_motorcycle_int5_motorcycle" depart="2157.80" departLane="best" departSpeed="max" from="E30" to="E30.558"/>
    <trip id="res_motorcycle_int5148" type="res_motorcycle_int5_motorcycle" depart="2160.20" departLane="best" departSpeed="max" from="E22" to="E18.410"/>
    <trip id="res_motorcycle_int5149" type="res_motorcycle_int5_motorcycle" depart="2162.60" departLane="best" departSpeed="max" from="E18" to="E31.622"/>
</routes>
