<?xml version="1.0" encoding="UTF-8"?>

<!-- generated on 2025-07-30 17:25:01.994269 by randomTrips.py v1_23_1+0000-676720d13f6
<configuration>
    <net-file value="osm.net.xml.gz"/>
    <weights-prefix value="random_edge_priority_interval_5"/>
    <output-trip-file value="osm.res_veh.interval_5.trips.xml"/>
    <prefix value="res_veh_int5"/>
    <trip-attributes value="departLane='best'"/>
    <fringe-start-attributes value="departSpeed='max'"/>
    <vehicle-class value="passenger"/>
    <remove-loops value="True"/>
    <validate value="True"/>
    <begin value="1805.0"/>
    <end value="2165.0"/>
    <insertion-rate value="1480.0"/>
</configuration>
-->

<!-- generated on 2025-07-30 17:25:01 by Eclipse SUMO duarouter Version 1.23.1
<duarouterConfiguration xmlns:xsi="http://www.w3.org/2001/XMLSchema-instance" xsi:noNamespaceSchemaLocation="http://sumo.dlr.de/xsd/duarouterConfiguration.xsd">

    <input>
        <net-file value="osm.net.xml.gz"/>
        <route-files value="osm.res_veh.interval_5.trips.xml"/>
    </input>

    <output>
        <output-file value="osm.res_veh.interval_5.trips.xml.tmp"/>
        <alternatives-output value="NUL"/>
        <write-trips value="true"/>
    </output>

    <processing>
        <remove-loops value="true"/>
    </processing>

    <time>
        <begin value="1805.0"/>
        <end value="2165.0"/>
    </time>

    <report>
        <no-warnings value="true"/>
        <ignore-errors value="true"/>
        <no-step-log value="true"/>
    </report>

</duarouterConfiguration>
-->

<routes xmlns:xsi="http://www.w3.org/2001/XMLSchema-instance" xsi:noNamespaceSchemaLocation="http://sumo.dlr.de/xsd/routes_file.xsd">
    <vType id="res_veh_int5_passenger" vClass="passenger"/>
    <trip id="res_veh_int51" type="res_veh_int5_passenger" depart="1807.43" departLane="best" departSpeed="max" from="E22" to="E18.410"/>
    <trip id="res_veh_int52" type="res_veh_int5_passenger" depart="1809.86" departLane="best" departSpeed="max" from="E30" to="E30.558"/>
    <trip id="res_veh_int53" type="res_veh_int5_passenger" depart="1812.30" departLane="best" departSpeed="max" from="E31" to="E18.410"/>
    <trip id="res_veh_int54" type="res_veh_int5_passenger" depart="1814.73" departLane="best" departSpeed="max" from="E22" to="E18.410"/>
    <trip id="res_veh_int56" type="res_veh_int5_passenger" depart="1819.59" departLane="best" departSpeed="max" from="E18" to="E18.410"/>
    <trip id="res_veh_int57" type="res_veh_int5_passenger" depart="1822.03" departLane="best" departSpeed="max" from="E30" to="E30.558"/>
    <trip id="res_veh_int59" type="res_veh_int5_passenger" depart="1826.89" departLane="best" departSpeed="max" from="E31" to="E18.410"/>
    <trip id="res_veh_int510" type="res_veh_int5_passenger" depart="1829.32" departLane="best" departSpeed="max" from="E31" to="E30.558"/>
    <trip id="res_veh_int511" type="res_veh_int5_passenger" depart="1831.76" departLane="best" departSpeed="max" from="E22" to="E18.410"/>
    <trip id="res_veh_int513" type="res_veh_int5_passenger" depart="1836.62" departLane="best" departSpeed="max" from="E18" to="E18.410"/>
    <trip id="res_veh_int514" type="res_veh_int5_passenger" depart="1839.05" departLane="best" departSpeed="max" from="E31" to="E30.558"/>
    <trip id="res_veh_int515" type="res_veh_int5_passenger" depart="1841.49" departLane="best" departSpeed="max" from="E31" to="E30.558"/>
    <trip id="res_veh_int516" type="res_veh_int5_passenger" depart="1843.92" departLane="best" departSpeed="max" from="E30" to="E31.622"/>
    <trip id="res_veh_int517" type="res_veh_int5_passenger" depart="1846.35" departLane="best" departSpeed="max" from="E22" to="E30.558"/>
    <trip id="res_veh_int518" type="res_veh_int5_passenger" depart="1848.78" departLane="best" departSpeed="max" from="E31" to="E30.558"/>
    <trip id="res_veh_int519" type="res_veh_int5_passenger" depart="1851.22" departLane="best" departSpeed="max" from="E31" to="E30.558"/>
    <trip id="res_veh_int521" type="res_veh_int5_passenger" depart="1856.08" departLane="best" departSpeed="max" from="E18" to="E22.488"/>
    <trip id="res_veh_int522" type="res_veh_int5_passenger" depart="1858.51" departLane="best" departSpeed="max" from="E18" to="E18.410"/>
    <trip id="res_veh_int523" type="res_veh_int5_passenger" depart="1860.95" departLane="best" departSpeed="max" from="E18" to="E22.488"/>
    <trip id="res_veh_int524" type="res_veh_int5_passenger" depart="1863.38" departLane="best" departSpeed="max" from="E30" to="E22.488"/>
    <trip id="res_veh_int525" type="res_veh_int5_passenger" depart="1865.81" departLane="best" departSpeed="max" from="E22" to="E18.410"/>
    <trip id="res_veh_int527" type="res_veh_int5_passenger" depart="1870.68" departLane="best" departSpeed="max" from="E30" to="E30.558"/>
    <trip id="res_veh_int529" type="res_veh_int5_passenger" depart="1875.54" departLane="best" departSpeed="max" from="E18" to="E22.488"/>
    <trip id="res_veh_int530" type="res_veh_int5_passenger" depart="1877.97" departLane="best" departSpeed="max" from="E31" to="E30.558"/>
    <trip id="res_veh_int531" type="res_veh_int5_passenger" depart="1880.41" departLane="best" departSpeed="max" from="E30" to="E30.558"/>
    <trip id="res_veh_int532" type="res_veh_int5_passenger" depart="1882.84" departLane="best" departSpeed="max" from="E31" to="E31.622"/>
    <trip id="res_veh_int533" type="res_veh_int5_passenger" depart="1885.27" departLane="best" departSpeed="max" from="E18" to="E18.410"/>
    <trip id="res_veh_int534" type="res_veh_int5_passenger" depart="1887.70" departLane="best" departSpeed="max" from="E22" to="E22.488"/>
    <trip id="res_veh_int535" type="res_veh_int5_passenger" depart="1890.14" departLane="best" departSpeed="max" from="E18" to="E31.622"/>
    <trip id="res_veh_int537" type="res_veh_int5_passenger" depart="1895.00" departLane="best" departSpeed="max" from="E30" to="E22.488"/>
    <trip id="res_veh_int539" type="res_veh_int5_passenger" depart="1899.86" departLane="best" departSpeed="max" from="E22" to="E18.410"/>
    <trip id="res_veh_int540" type="res_veh_int5_passenger" depart="1902.30" departLane="best" departSpeed="max" from="E30" to="E22.488"/>
    <trip id="res_veh_int541" type="res_veh_int5_passenger" depart="1904.73" departLane="best" departSpeed="max" from="E30" to="E31.622"/>
    <trip id="res_veh_int542" type="res_veh_int5_passenger" depart="1907.16" departLane="best" departSpeed="max" from="E22" to="E18.410"/>
    <trip id="res_veh_int543" type="res_veh_int5_passenger" depart="1909.59" departLane="best" departSpeed="max" from="E31" to="E30.558"/>
    <trip id="res_veh_int544" type="res_veh_int5_passenger" depart="1912.03" departLane="best" departSpeed="max" from="E18" to="E18.410"/>
    <trip id="res_veh_int547" type="res_veh_int5_passenger" depart="1919.32" departLane="best" departSpeed="max" from="E18" to="E22.488"/>
    <trip id="res_veh_int548" type="res_veh_int5_passenger" depart="1921.76" departLane="best" departSpeed="max" from="E31" to="E30.558"/>
    <trip id="res_veh_int549" type="res_veh_int5_passenger" depart="1924.19" departLane="best" departSpeed="max" from="E31" to="E31.622"/>
    <trip id="res_veh_int551" type="res_veh_int5_passenger" depart="1929.05" departLane="best" departSpeed="max" from="E30" to="E30.558"/>
    <trip id="res_veh_int552" type="res_veh_int5_passenger" depart="1931.49" departLane="best" departSpeed="max" from="E22" to="E30.558"/>
    <trip id="res_veh_int553" type="res_veh_int5_passenger" depart="1933.92" departLane="best" departSpeed="max" from="E18" to="E22.488"/>
    <trip id="res_veh_int557" type="res_veh_int5_passenger" depart="1943.65" departLane="best" departSpeed="max" from="E31" to="E31.622"/>
    <trip id="res_veh_int558" type="res_veh_int5_passenger" depart="1946.08" departLane="best" departSpeed="max" from="E22" to="E30.558"/>
    <trip id="res_veh_int560" type="res_veh_int5_passenger" depart="1950.95" departLane="best" departSpeed="max" from="E31" to="E30.558"/>
    <trip id="res_veh_int561" type="res_veh_int5_passenger" depart="1953.38" departLane="best" departSpeed="max" from="E31" to="E30.558"/>
    <trip id="res_veh_int562" type="res_veh_int5_passenger" depart="1955.81" departLane="best" departSpeed="max" from="E18" to="E22.488"/>
    <trip id="res_veh_int563" type="res_veh_int5_passenger" depart="1958.24" departLane="best" departSpeed="max" from="E18" to="E31.622"/>
    <trip id="res_veh_int564" type="res_veh_int5_passenger" depart="1960.68" departLane="best" departSpeed="max" from="E31" to="E31.622"/>
    <trip id="res_veh_int565" type="res_veh_int5_passenger" depart="1963.11" departLane="best" departSpeed="max" from="E22" to="E18.410"/>
    <trip id="res_veh_int566" type="res_veh_int5_passenger" depart="1965.54" departLane="best" departSpeed="max" from="E31" to="E31.622"/>
    <trip id="res_veh_int567" type="res_veh_int5_passenger" depart="1967.97" departLane="best" departSpeed="max" from="E18" to="E22.488"/>
    <trip id="res_veh_int568" type="res_veh_int5_passenger" depart="1970.41" departLane="best" departSpeed="max" from="E18" to="E31.622"/>
    <trip id="res_veh_int569" type="res_veh_int5_passenger" depart="1972.84" departLane="best" departSpeed="max" from="E31" to="E18.410"/>
    <trip id="res_veh_int570" type="res_veh_int5_passenger" depart="1975.27" departLane="best" departSpeed="max" from="E22" to="E30.558"/>
    <trip id="res_veh_int572" type="res_veh_int5_passenger" depart="1980.14" departLane="best" departSpeed="max" from="E22" to="E18.410"/>
    <trip id="res_veh_int573" type="res_veh_int5_passenger" depart="1982.57" departLane="best" departSpeed="max" from="E30" to="E30.558"/>
    <trip id="res_veh_int574" type="res_veh_int5_passenger" depart="1985.00" departLane="best" departSpeed="max" from="E18" to="E22.488"/>
    <trip id="res_veh_int575" type="res_veh_int5_passenger" depart="1987.43" departLane="best" departSpeed="max" from="E31" to="E30.558"/>
    <trip id="res_veh_int576" type="res_veh_int5_passenger" depart="1989.86" departLane="best" departSpeed="max" from="E22" to="E30.558"/>
    <trip id="res_veh_int577" type="res_veh_int5_passenger" depart="1992.30" departLane="best" departSpeed="max" from="E18" to="E18.410"/>
    <trip id="res_veh_int578" type="res_veh_int5_passenger" depart="1994.73" departLane="best" departSpeed="max" from="E22" to="E30.558"/>
    <trip id="res_veh_int579" type="res_veh_int5_passenger" depart="1997.16" departLane="best" departSpeed="max" from="E18" to="E18.410"/>
    <trip id="res_veh_int581" type="res_veh_int5_passenger" depart="2002.03" departLane="best" departSpeed="max" from="E18" to="E31.622"/>
    <trip id="res_veh_int582" type="res_veh_int5_passenger" depart="2004.46" departLane="best" departSpeed="max" from="E31" to="E18.410"/>
    <trip id="res_veh_int584" type="res_veh_int5_passenger" depart="2009.32" departLane="best" departSpeed="max" from="E18" to="E18.410"/>
    <trip id="res_veh_int585" type="res_veh_int5_passenger" depart="2011.76" departLane="best" departSpeed="max" from="E31" to="E30.558"/>
    <trip id="res_veh_int587" type="res_veh_int5_passenger" depart="2016.62" departLane="best" departSpeed="max" from="E31" to="E18.410"/>
    <trip id="res_veh_int588" type="res_veh_int5_passenger" depart="2019.05" departLane="best" departSpeed="max" from="E18" to="E22.488"/>
    <trip id="res_veh_int589" type="res_veh_int5_passenger" depart="2021.49" departLane="best" departSpeed="max" from="E22" to="E22.488"/>
    <trip id="res_veh_int590" type="res_veh_int5_passenger" depart="2023.92" departLane="best" departSpeed="max" from="E30" to="E30.558"/>
    <trip id="res_veh_int591" type="res_veh_int5_passenger" depart="2026.35" departLane="best" departSpeed="max" from="E31" to="E18.410"/>
    <trip id="res_veh_int592" type="res_veh_int5_passenger" depart="2028.78" departLane="best" departSpeed="max" from="E22" to="E22.488"/>
    <trip id="res_veh_int593" type="res_veh_int5_passenger" depart="2031.22" departLane="best" departSpeed="max" from="E31" to="E18.410"/>
    <trip id="res_veh_int594" type="res_veh_int5_passenger" depart="2033.65" departLane="best" departSpeed="max" from="E18" to="E22.488"/>
    <trip id="res_veh_int595" type="res_veh_int5_passenger" depart="2036.08" departLane="best" departSpeed="max" from="E22" to="E22.488"/>
    <trip id="res_veh_int596" type="res_veh_int5_passenger" depart="2038.51" departLane="best" departSpeed="max" from="E18" to="E31.622"/>
    <trip id="res_veh_int599" type="res_veh_int5_passenger" depart="2045.81" departLane="best" departSpeed="max" from="E31" to="E31.622"/>
    <trip id="res_veh_int5100" type="res_veh_int5_passenger" depart="2048.24" departLane="best" departSpeed="max" from="E31" to="E31.622"/>
    <trip id="res_veh_int5101" type="res_veh_int5_passenger" depart="2050.68" departLane="best" departSpeed="max" from="E31" to="E18.410"/>
    <trip id="res_veh_int5102" type="res_veh_int5_passenger" depart="2053.11" departLane="best" departSpeed="max" from="E22" to="E18.410"/>
    <trip id="res_veh_int5103" type="res_veh_int5_passenger" depart="2055.54" departLane="best" departSpeed="max" from="E22" to="E18.410"/>
    <trip id="res_veh_int5106" type="res_veh_int5_passenger" depart="2062.84" departLane="best" departSpeed="max" from="E22" to="E22.488"/>
    <trip id="res_veh_int5107" type="res_veh_int5_passenger" depart="2065.27" departLane="best" departSpeed="max" from="E31" to="E31.622"/>
    <trip id="res_veh_int5108" type="res_veh_int5_passenger" depart="2067.70" departLane="best" departSpeed="max" from="E30" to="E30.558"/>
    <trip id="res_veh_int5109" type="res_veh_int5_passenger" depart="2070.14" departLane="best" departSpeed="max" from="E18" to="E22.488"/>
    <trip id="res_veh_int5110" type="res_veh_int5_passenger" depart="2072.57" departLane="best" departSpeed="max" from="E31" to="E30.558"/>
    <trip id="res_veh_int5111" type="res_veh_int5_passenger" depart="2075.00" departLane="best" departSpeed="max" from="E30" to="E30.558"/>
    <trip id="res_veh_int5113" type="res_veh_int5_passenger" depart="2079.86" departLane="best" departSpeed="max" from="E30" to="E31.622"/>
    <trip id="res_veh_int5114" type="res_veh_int5_passenger" depart="2082.30" departLane="best" departSpeed="max" from="E18" to="E31.622"/>
    <trip id="res_veh_int5115" type="res_veh_int5_passenger" depart="2084.73" departLane="best" departSpeed="max" from="E18" to="E18.410"/>
    <trip id="res_veh_int5116" type="res_veh_int5_passenger" depart="2087.16" departLane="best" departSpeed="max" from="E30" to="E30.558"/>
    <trip id="res_veh_int5117" type="res_veh_int5_passenger" depart="2089.59" departLane="best" departSpeed="max" from="E18" to="E18.410"/>
    <trip id="res_veh_int5118" type="res_veh_int5_passenger" depart="2092.03" departLane="best" departSpeed="max" from="E31" to="E18.410"/>
    <trip id="res_veh_int5119" type="res_veh_int5_passenger" depart="2094.46" departLane="best" departSpeed="max" from="E30" to="E30.558"/>
    <trip id="res_veh_int5120" type="res_veh_int5_passenger" depart="2096.89" departLane="best" departSpeed="max" from="E22" to="E30.558"/>
    <trip id="res_veh_int5121" type="res_veh_int5_passenger" depart="2099.32" departLane="best" departSpeed="max" from="E30" to="E31.622"/>
    <trip id="res_veh_int5123" type="res_veh_int5_passenger" depart="2104.19" departLane="best" departSpeed="max" from="E18" to="E22.488"/>
    <trip id="res_veh_int5124" type="res_veh_int5_passenger" depart="2106.62" departLane="best" departSpeed="max" from="E30" to="E22.488"/>
    <trip id="res_veh_int5126" type="res_veh_int5_passenger" depart="2111.49" departLane="best" departSpeed="max" from="E18" to="E22.488"/>
    <trip id="res_veh_int5127" type="res_veh_int5_passenger" depart="2113.92" departLane="best" departSpeed="max" from="E31" to="E31.622"/>
    <trip id="res_veh_int5128" type="res_veh_int5_passenger" depart="2116.35" departLane="best" departSpeed="max" from="E18" to="E18.410"/>
    <trip id="res_veh_int5130" type="res_veh_int5_passenger" depart="2121.22" departLane="best" departSpeed="max" from="E31" to="E31.622"/>
    <trip id="res_veh_int5131" type="res_veh_int5_passenger" depart="2123.65" departLane="best" departSpeed="max" from="E22" to="E18.410"/>
    <trip id="res_veh_int5132" type="res_veh_int5_passenger" depart="2126.08" departLane="best" departSpeed="max" from="E31" to="E30.558"/>
    <trip id="res_veh_int5133" type="res_veh_int5_passenger" depart="2128.51" departLane="best" departSpeed="max" from="E30" to="E31.622"/>
    <trip id="res_veh_int5136" type="res_veh_int5_passenger" depart="2135.81" departLane="best" departSpeed="max" from="E30" to="E31.622"/>
    <trip id="res_veh_int5137" type="res_veh_int5_passenger" depart="2138.24" departLane="best" departSpeed="max" from="E18" to="E18.410"/>
    <trip id="res_veh_int5139" type="res_veh_int5_passenger" depart="2143.11" departLane="best" departSpeed="max" from="E22" to="E30.558"/>
    <trip id="res_veh_int5141" type="res_veh_int5_passenger" depart="2147.97" departLane="best" departSpeed="max" from="E30" to="E22.488"/>
    <trip id="res_veh_int5143" type="res_veh_int5_passenger" depart="2152.84" departLane="best" departSpeed="max" from="E31" to="E18.410"/>
    <trip id="res_veh_int5144" type="res_veh_int5_passenger" depart="2155.27" departLane="best" departSpeed="max" from="E22" to="E22.488"/>
    <trip id="res_veh_int5145" type="res_veh_int5_passenger" depart="2157.70" departLane="best" departSpeed="max" from="E18" to="E31.622"/>
    <trip id="res_veh_int5146" type="res_veh_int5_passenger" depart="2160.14" departLane="best" departSpeed="max" from="E30" to="E22.488"/>
    <trip id="res_veh_int5147" type="res_veh_int5_passenger" depart="2162.57" departLane="best" departSpeed="max" from="E30" to="E30.558"/>
</routes>
