<?xml version="1.0" encoding="UTF-8"?>

<!-- generated on 2025-07-31 11:09:50.136458 by randomTrips.py v1_23_1+0000-676720d13f6
<configuration>
    <net-file value="osm.net.xml.gz"/>
    <weights-prefix value="random_edge_priority_interval_1"/>
    <output-trip-file value="osm.res_motorcycle.interval_1.trips.xml"/>
    <prefix value="res_motorcycle_int1"/>
    <trip-attributes value="departLane='best'"/>
    <fringe-start-attributes value="departSpeed='max'"/>
    <vehicle-class value="motorcycle"/>
    <vclass value="motorcycle"/>
    <remove-loops value="True"/>
    <validate value="True"/>
    <begin value="361.0"/>
    <end value="721.0"/>
    <insertion-rate value="1500.0"/>
</configuration>
-->

<!-- generated on 2025-07-31 11:09:50 by Eclipse SUMO duarouter Version 1.23.1
<duarouterConfiguration xmlns:xsi="http://www.w3.org/2001/XMLSchema-instance" xsi:noNamespaceSchemaLocation="http://sumo.dlr.de/xsd/duarouterConfiguration.xsd">

    <input>
        <net-file value="osm.net.xml.gz"/>
        <route-files value="osm.res_motorcycle.interval_1.trips.xml"/>
    </input>

    <output>
        <output-file value="osm.res_motorcycle.interval_1.trips.xml.tmp"/>
        <alternatives-output value="NUL"/>
        <write-trips value="true"/>
    </output>

    <processing>
        <remove-loops value="true"/>
    </processing>

    <time>
        <begin value="361.0"/>
        <end value="721.0"/>
    </time>

    <report>
        <no-warnings value="true"/>
        <ignore-errors value="true"/>
        <no-step-log value="true"/>
    </report>

</duarouterConfiguration>
-->

<routes xmlns:xsi="http://www.w3.org/2001/XMLSchema-instance" xsi:noNamespaceSchemaLocation="http://sumo.dlr.de/xsd/routes_file.xsd">
    <vType id="res_motorcycle_int1_motorcycle" vClass="motorcycle"/>
    <trip id="res_motorcycle_int10" type="res_motorcycle_int1_motorcycle" depart="361.00" departLane="best" departSpeed="max" from="E22" to="E18.410"/>
    <trip id="res_motorcycle_int11" type="res_motorcycle_int1_motorcycle" depart="363.40" departLane="best" departSpeed="max" from="E18" to="E18.410"/>
    <trip id="res_motorcycle_int12" type="res_motorcycle_int1_motorcycle" depart="365.80" departLane="best" departSpeed="max" from="E30" to="E30.558"/>
    <trip id="res_motorcycle_int13" type="res_motorcycle_int1_motorcycle" depart="368.20" departLane="best" departSpeed="max" from="E31" to="E18.410"/>
    <trip id="res_motorcycle_int14" type="res_motorcycle_int1_motorcycle" depart="370.60" departLane="best" departSpeed="max" from="E18" to="E18.410"/>
    <trip id="res_motorcycle_int16" type="res_motorcycle_int1_motorcycle" depart="375.40" departLane="best" departSpeed="max" from="E18" to="E18.410"/>
    <trip id="res_motorcycle_int17" type="res_motorcycle_int1_motorcycle" depart="377.80" departLane="best" departSpeed="max" from="E22" to="E30.558"/>
    <trip id="res_motorcycle_int110" type="res_motorcycle_int1_motorcycle" depart="385.00" departLane="best" departSpeed="max" from="E30" to="E30.558"/>
    <trip id="res_motorcycle_int111" type="res_motorcycle_int1_motorcycle" depart="387.40" departLane="best" departSpeed="max" from="E18" to="E18.410"/>
    <trip id="res_motorcycle_int113" type="res_motorcycle_int1_motorcycle" depart="392.20" departLane="best" departSpeed="max" from="E18" to="E18.410"/>
    <trip id="res_motorcycle_int114" type="res_motorcycle_int1_motorcycle" depart="394.60" departLane="best" departSpeed="max" from="E31" to="E30.558"/>
    <trip id="res_motorcycle_int115" type="res_motorcycle_int1_motorcycle" depart="397.00" departLane="best" departSpeed="max" from="E30" to="E30.558"/>
    <trip id="res_motorcycle_int118" type="res_motorcycle_int1_motorcycle" depart="404.20" departLane="best" departSpeed="max" from="E30" to="E30.558"/>
    <trip id="res_motorcycle_int119" type="res_motorcycle_int1_motorcycle" depart="406.60" departLane="best" departSpeed="max" from="E31" to="E30.558"/>
    <trip id="res_motorcycle_int121" type="res_motorcycle_int1_motorcycle" depart="411.40" departLane="best" departSpeed="max" from="E18" to="E22.488"/>
    <trip id="res_motorcycle_int122" type="res_motorcycle_int1_motorcycle" depart="413.80" departLane="best" departSpeed="max" from="E18" to="E18.410"/>
    <trip id="res_motorcycle_int123" type="res_motorcycle_int1_motorcycle" depart="416.20" departLane="best" departSpeed="max" from="E18" to="E22.488"/>
    <trip id="res_motorcycle_int124" type="res_motorcycle_int1_motorcycle" depart="418.60" departLane="best" departSpeed="max" from="E22" to="E22.488"/>
    <trip id="res_motorcycle_int125" type="res_motorcycle_int1_motorcycle" depart="421.00" departLane="best" departSpeed="max" from="E18" to="E18.410"/>
    <trip id="res_motorcycle_int126" type="res_motorcycle_int1_motorcycle" depart="423.40" departLane="best" departSpeed="max" from="E18" to="E31.622"/>
    <trip id="res_motorcycle_int127" type="res_motorcycle_int1_motorcycle" depart="425.80" departLane="best" departSpeed="max" from="E22" to="E30.558"/>
    <trip id="res_motorcycle_int129" type="res_motorcycle_int1_motorcycle" depart="430.60" departLane="best" departSpeed="max" from="E18" to="E22.488"/>
    <trip id="res_motorcycle_int130" type="res_motorcycle_int1_motorcycle" depart="433.00" departLane="best" departSpeed="max" from="E31" to="E30.558"/>
    <trip id="res_motorcycle_int131" type="res_motorcycle_int1_motorcycle" depart="435.40" departLane="best" departSpeed="max" from="E22" to="E30.558"/>
    <trip id="res_motorcycle_int132" type="res_motorcycle_int1_motorcycle" depart="437.80" departLane="best" departSpeed="max" from="E31" to="E31.622"/>
    <trip id="res_motorcycle_int133" type="res_motorcycle_int1_motorcycle" depart="440.20" departLane="best" departSpeed="max" from="E18" to="E18.410"/>
    <trip id="res_motorcycle_int134" type="res_motorcycle_int1_motorcycle" depart="442.60" departLane="best" departSpeed="max" from="E18" to="E22.488"/>
    <trip id="res_motorcycle_int135" type="res_motorcycle_int1_motorcycle" depart="445.00" departLane="best" departSpeed="max" from="E18" to="E31.622"/>
    <trip id="res_motorcycle_int137" type="res_motorcycle_int1_motorcycle" depart="449.80" departLane="best" departSpeed="max" from="E22" to="E22.488"/>
    <trip id="res_motorcycle_int139" type="res_motorcycle_int1_motorcycle" depart="454.60" departLane="best" departSpeed="max" from="E18" to="E18.410"/>
    <trip id="res_motorcycle_int140" type="res_motorcycle_int1_motorcycle" depart="457.00" departLane="best" departSpeed="max" from="E22" to="E22.488"/>
    <trip id="res_motorcycle_int142" type="res_motorcycle_int1_motorcycle" depart="461.80" departLane="best" departSpeed="max" from="E18" to="E18.410"/>
    <trip id="res_motorcycle_int143" type="res_motorcycle_int1_motorcycle" depart="464.20" departLane="best" departSpeed="max" from="E31" to="E30.558"/>
    <trip id="res_motorcycle_int144" type="res_motorcycle_int1_motorcycle" depart="466.60" departLane="best" departSpeed="max" from="E18" to="E18.410"/>
    <trip id="res_motorcycle_int146" type="res_motorcycle_int1_motorcycle" depart="471.40" departLane="best" departSpeed="max" from="E30" to="E22.488"/>
    <trip id="res_motorcycle_int147" type="res_motorcycle_int1_motorcycle" depart="473.80" departLane="best" departSpeed="max" from="E18" to="E22.488"/>
    <trip id="res_motorcycle_int148" type="res_motorcycle_int1_motorcycle" depart="476.20" departLane="best" departSpeed="max" from="E31" to="E30.558"/>
    <trip id="res_motorcycle_int149" type="res_motorcycle_int1_motorcycle" depart="478.60" departLane="best" departSpeed="max" from="E31" to="E31.622"/>
    <trip id="res_motorcycle_int151" type="res_motorcycle_int1_motorcycle" depart="483.40" departLane="best" departSpeed="max" from="E30" to="E30.558"/>
    <trip id="res_motorcycle_int153" type="res_motorcycle_int1_motorcycle" depart="488.20" departLane="best" departSpeed="max" from="E18" to="E22.488"/>
    <trip id="res_motorcycle_int154" type="res_motorcycle_int1_motorcycle" depart="490.60" departLane="best" departSpeed="max" from="E18" to="E31.622"/>
    <trip id="res_motorcycle_int156" type="res_motorcycle_int1_motorcycle" depart="495.40" departLane="best" departSpeed="max" from="E22" to="E18.410"/>
    <trip id="res_motorcycle_int157" type="res_motorcycle_int1_motorcycle" depart="497.80" departLane="best" departSpeed="max" from="E31" to="E31.622"/>
    <trip id="res_motorcycle_int159" type="res_motorcycle_int1_motorcycle" depart="502.60" departLane="best" departSpeed="max" from="E22" to="E18.410"/>
    <trip id="res_motorcycle_int160" type="res_motorcycle_int1_motorcycle" depart="505.00" departLane="best" departSpeed="max" from="E30" to="E30.558"/>
    <trip id="res_motorcycle_int161" type="res_motorcycle_int1_motorcycle" depart="507.40" departLane="best" departSpeed="max" from="E30" to="E30.558"/>
    <trip id="res_motorcycle_int162" type="res_motorcycle_int1_motorcycle" depart="509.80" departLane="best" departSpeed="max" from="E18" to="E22.488"/>
    <trip id="res_motorcycle_int163" type="res_motorcycle_int1_motorcycle" depart="512.20" departLane="best" departSpeed="max" from="E18" to="E31.622"/>
    <trip id="res_motorcycle_int164" type="res_motorcycle_int1_motorcycle" depart="514.60" departLane="best" departSpeed="max" from="E31" to="E31.622"/>
    <trip id="res_motorcycle_int165" type="res_motorcycle_int1_motorcycle" depart="517.00" departLane="best" departSpeed="max" from="E18" to="E18.410"/>
    <trip id="res_motorcycle_int166" type="res_motorcycle_int1_motorcycle" depart="519.40" departLane="best" departSpeed="max" from="E31" to="E31.622"/>
    <trip id="res_motorcycle_int167" type="res_motorcycle_int1_motorcycle" depart="521.80" departLane="best" departSpeed="max" from="E18" to="E22.488"/>
    <trip id="res_motorcycle_int168" type="res_motorcycle_int1_motorcycle" depart="524.20" departLane="best" departSpeed="max" from="E18" to="E31.622"/>
    <trip id="res_motorcycle_int171" type="res_motorcycle_int1_motorcycle" depart="531.40" departLane="best" departSpeed="max" from="E18" to="E31.622"/>
    <trip id="res_motorcycle_int172" type="res_motorcycle_int1_motorcycle" depart="533.80" departLane="best" departSpeed="max" from="E18" to="E18.410"/>
    <trip id="res_motorcycle_int173" type="res_motorcycle_int1_motorcycle" depart="536.20" departLane="best" departSpeed="max" from="E22" to="E30.558"/>
    <trip id="res_motorcycle_int174" type="res_motorcycle_int1_motorcycle" depart="538.60" departLane="best" departSpeed="max" from="E18" to="E22.488"/>
    <trip id="res_motorcycle_int175" type="res_motorcycle_int1_motorcycle" depart="541.00" departLane="best" departSpeed="max" from="E31" to="E30.558"/>
    <trip id="res_motorcycle_int177" type="res_motorcycle_int1_motorcycle" depart="545.80" departLane="best" departSpeed="max" from="E18" to="E18.410"/>
    <trip id="res_motorcycle_int179" type="res_motorcycle_int1_motorcycle" depart="550.60" departLane="best" departSpeed="max" from="E18" to="E18.410"/>
    <trip id="res_motorcycle_int181" type="res_motorcycle_int1_motorcycle" depart="555.40" departLane="best" departSpeed="max" from="E18" to="E31.622"/>
    <trip id="res_motorcycle_int182" type="res_motorcycle_int1_motorcycle" depart="557.80" departLane="best" departSpeed="max" from="E31" to="E18.410"/>
    <trip id="res_motorcycle_int184" type="res_motorcycle_int1_motorcycle" depart="562.60" departLane="best" departSpeed="max" from="E18" to="E18.410"/>
    <trip id="res_motorcycle_int185" type="res_motorcycle_int1_motorcycle" depart="565.00" departLane="best" departSpeed="max" from="E31" to="E30.558"/>
    <trip id="res_motorcycle_int186" type="res_motorcycle_int1_motorcycle" depart="567.40" departLane="best" departSpeed="max" from="E18" to="E31.622"/>
    <trip id="res_motorcycle_int188" type="res_motorcycle_int1_motorcycle" depart="572.20" departLane="best" departSpeed="max" from="E18" to="E22.488"/>
    <trip id="res_motorcycle_int189" type="res_motorcycle_int1_motorcycle" depart="574.60" departLane="best" departSpeed="max" from="E18" to="E22.488"/>
    <trip id="res_motorcycle_int190" type="res_motorcycle_int1_motorcycle" depart="577.00" departLane="best" departSpeed="max" from="E30" to="E30.558"/>
    <trip id="res_motorcycle_int191" type="res_motorcycle_int1_motorcycle" depart="579.40" departLane="best" departSpeed="max" from="E31" to="E18.410"/>
    <trip id="res_motorcycle_int192" type="res_motorcycle_int1_motorcycle" depart="581.80" departLane="best" departSpeed="max" from="E18" to="E22.488"/>
    <trip id="res_motorcycle_int193" type="res_motorcycle_int1_motorcycle" depart="584.20" departLane="best" departSpeed="max" from="E31" to="E18.410"/>
    <trip id="res_motorcycle_int194" type="res_motorcycle_int1_motorcycle" depart="586.60" departLane="best" departSpeed="max" from="E18" to="E22.488"/>
    <trip id="res_motorcycle_int195" type="res_motorcycle_int1_motorcycle" depart="589.00" departLane="best" departSpeed="max" from="E18" to="E22.488"/>
    <trip id="res_motorcycle_int196" type="res_motorcycle_int1_motorcycle" depart="591.40" departLane="best" departSpeed="max" from="E18" to="E31.622"/>
    <trip id="res_motorcycle_int197" type="res_motorcycle_int1_motorcycle" depart="593.80" departLane="best" departSpeed="max" from="E18" to="E31.622"/>
    <trip id="res_motorcycle_int198" type="res_motorcycle_int1_motorcycle" depart="596.20" departLane="best" departSpeed="max" from="E22" to="E18.410"/>
    <trip id="res_motorcycle_int199" type="res_motorcycle_int1_motorcycle" depart="598.60" departLane="best" departSpeed="max" from="E31" to="E31.622"/>
    <trip id="res_motorcycle_int1100" type="res_motorcycle_int1_motorcycle" depart="601.00" departLane="best" departSpeed="max" from="E31" to="E31.622"/>
    <trip id="res_motorcycle_int1101" type="res_motorcycle_int1_motorcycle" depart="603.40" departLane="best" departSpeed="max" from="E31" to="E18.410"/>
    <trip id="res_motorcycle_int1102" type="res_motorcycle_int1_motorcycle" depart="605.80" departLane="best" departSpeed="max" from="E18" to="E18.410"/>
    <trip id="res_motorcycle_int1103" type="res_motorcycle_int1_motorcycle" depart="608.20" departLane="best" departSpeed="max" from="E18" to="E18.410"/>
    <trip id="res_motorcycle_int1104" type="res_motorcycle_int1_motorcycle" depart="610.60" departLane="best" departSpeed="max" from="E18" to="E31.622"/>
    <trip id="res_motorcycle_int1105" type="res_motorcycle_int1_motorcycle" depart="613.00" departLane="best" departSpeed="max" from="E18" to="E31.622"/>
    <trip id="res_motorcycle_int1106" type="res_motorcycle_int1_motorcycle" depart="615.40" departLane="best" departSpeed="max" from="E18" to="E22.488"/>
    <trip id="res_motorcycle_int1107" type="res_motorcycle_int1_motorcycle" depart="617.80" departLane="best" departSpeed="max" from="E31" to="E31.622"/>
    <trip id="res_motorcycle_int1108" type="res_motorcycle_int1_motorcycle" depart="620.20" departLane="best" departSpeed="max" from="E22" to="E30.558"/>
    <trip id="res_motorcycle_int1109" type="res_motorcycle_int1_motorcycle" depart="622.60" departLane="best" departSpeed="max" from="E18" to="E22.488"/>
    <trip id="res_motorcycle_int1110" type="res_motorcycle_int1_motorcycle" depart="625.00" departLane="best" departSpeed="max" from="E31" to="E30.558"/>
    <trip id="res_motorcycle_int1111" type="res_motorcycle_int1_motorcycle" depart="627.40" departLane="best" departSpeed="max" from="E22" to="E30.558"/>
    <trip id="res_motorcycle_int1114" type="res_motorcycle_int1_motorcycle" depart="634.60" departLane="best" departSpeed="max" from="E18" to="E31.622"/>
    <trip id="res_motorcycle_int1115" type="res_motorcycle_int1_motorcycle" depart="637.00" departLane="best" departSpeed="max" from="E18" to="E18.410"/>
    <trip id="res_motorcycle_int1116" type="res_motorcycle_int1_motorcycle" depart="639.40" departLane="best" departSpeed="max" from="E22" to="E30.558"/>
    <trip id="res_motorcycle_int1117" type="res_motorcycle_int1_motorcycle" depart="641.80" departLane="best" departSpeed="max" from="E18" to="E18.410"/>
    <trip id="res_motorcycle_int1118" type="res_motorcycle_int1_motorcycle" depart="644.20" departLane="best" departSpeed="max" from="E31" to="E18.410"/>
    <trip id="res_motorcycle_int1119" type="res_motorcycle_int1_motorcycle" depart="646.60" departLane="best" departSpeed="max" from="E22" to="E30.558"/>
    <trip id="res_motorcycle_int1123" type="res_motorcycle_int1_motorcycle" depart="656.20" departLane="best" departSpeed="max" from="E18" to="E22.488"/>
    <trip id="res_motorcycle_int1124" type="res_motorcycle_int1_motorcycle" depart="658.60" departLane="best" departSpeed="max" from="E30" to="E22.488"/>
    <trip id="res_motorcycle_int1125" type="res_motorcycle_int1_motorcycle" depart="661.00" departLane="best" departSpeed="max" from="E18" to="E31.622"/>
    <trip id="res_motorcycle_int1126" type="res_motorcycle_int1_motorcycle" depart="663.40" departLane="best" departSpeed="max" from="E18" to="E22.488"/>
    <trip id="res_motorcycle_int1127" type="res_motorcycle_int1_motorcycle" depart="665.80" departLane="best" departSpeed="max" from="E31" to="E31.622"/>
    <trip id="res_motorcycle_int1128" type="res_motorcycle_int1_motorcycle" depart="668.20" departLane="best" departSpeed="max" from="E18" to="E18.410"/>
    <trip id="res_motorcycle_int1129" type="res_motorcycle_int1_motorcycle" depart="670.60" departLane="best" departSpeed="max" from="E18" to="E31.622"/>
    <trip id="res_motorcycle_int1130" type="res_motorcycle_int1_motorcycle" depart="673.00" departLane="best" departSpeed="max" from="E31" to="E31.622"/>
    <trip id="res_motorcycle_int1131" type="res_motorcycle_int1_motorcycle" depart="675.40" departLane="best" departSpeed="max" from="E18" to="E18.410"/>
    <trip id="res_motorcycle_int1132" type="res_motorcycle_int1_motorcycle" depart="677.80" departLane="best" departSpeed="max" from="E31" to="E30.558"/>
    <trip id="res_motorcycle_int1134" type="res_motorcycle_int1_motorcycle" depart="682.60" departLane="best" departSpeed="max" from="E22" to="E18.410"/>
    <trip id="res_motorcycle_int1135" type="res_motorcycle_int1_motorcycle" depart="685.00" departLane="best" departSpeed="max" from="E30" to="E22.488"/>
    <trip id="res_motorcycle_int1137" type="res_motorcycle_int1_motorcycle" depart="689.80" departLane="best" departSpeed="max" from="E18" to="E18.410"/>
    <trip id="res_motorcycle_int1141" type="res_motorcycle_int1_motorcycle" depart="699.40" departLane="best" departSpeed="max" from="E22" to="E22.488"/>
    <trip id="res_motorcycle_int1142" type="res_motorcycle_int1_motorcycle" depart="701.80" departLane="best" departSpeed="max" from="E18" to="E31.622"/>
    <trip id="res_motorcycle_int1143" type="res_motorcycle_int1_motorcycle" depart="704.20" departLane="best" departSpeed="max" from="E31" to="E18.410"/>
    <trip id="res_motorcycle_int1144" type="res_motorcycle_int1_motorcycle" depart="706.60" departLane="best" departSpeed="max" from="E18" to="E22.488"/>
    <trip id="res_motorcycle_int1145" type="res_motorcycle_int1_motorcycle" depart="709.00" departLane="best" departSpeed="max" from="E18" to="E31.622"/>
    <trip id="res_motorcycle_int1146" type="res_motorcycle_int1_motorcycle" depart="711.40" departLane="best" departSpeed="max" from="E22" to="E22.488"/>
    <trip id="res_motorcycle_int1147" type="res_motorcycle_int1_motorcycle" depart="713.80" departLane="best" departSpeed="max" from="E30" to="E30.558"/>
    <trip id="res_motorcycle_int1148" type="res_motorcycle_int1_motorcycle" depart="716.20" departLane="best" departSpeed="max" from="E18" to="E18.410"/>
    <trip id="res_motorcycle_int1149" type="res_motorcycle_int1_motorcycle" depart="718.60" departLane="best" departSpeed="max" from="E18" to="E31.622"/>
</routes>
