<?xml version="1.0" encoding="UTF-8"?>

<!-- generated on 2025-06-25 11:07:47.691330 by randomTrips.py v1_23_1+0000-676720d13f6
<configuration>
    <net-file value="osm.net.xml.gz"/>
    <output-trip-file value="osm.pedestrian.trips.xml"/>
    <route-file value="osm.pedestrian.rou.xml"/>
    <pedestrians value="True"/>
    <prefix value="ped"/>
    <vehicle-class value="pedestrian"/>
    <fringe-factor value="1"/>
    <max-distance value="2000.0"/>
    <insertion-density value="100.0"/>
</configuration>
-->

<routes xmlns:xsi="http://www.w3.org/2001/XMLSchema-instance" xsi:noNamespaceSchemaLocation="http://sumo.dlr.de/xsd/routes_file.xsd">
    <vType id="ped_pedestrian" vClass="pedestrian"/>
    <person id="ped0" depart="0.00" type="ped_pedestrian">
        <walk from="E3" to="E0"/>
    </person>
    <person id="ped1" depart="6.13" type="ped_pedestrian">
        <walk from="E16" to="E15"/>
    </person>
    <person id="ped2" depart="12.27" type="ped_pedestrian">
        <walk from="E4" to="E4"/>
    </person>
    <person id="ped3" depart="18.40" type="ped_pedestrian">
        <walk from="E6" to="E1"/>
    </person>
    <person id="ped4" depart="24.53" type="ped_pedestrian">
        <walk from="E18" to="E0"/>
    </person>
    <person id="ped5" depart="30.66" type="ped_pedestrian">
        <walk from="E15" to="E2"/>
    </person>
    <person id="ped6" depart="36.80" type="ped_pedestrian">
        <walk from="E0" to="E15"/>
    </person>
    <person id="ped7" depart="42.93" type="ped_pedestrian">
        <walk from="E3" to="E2"/>
    </person>
    <person id="ped8" depart="49.06" type="ped_pedestrian">
        <walk from="E15" to="E3"/>
    </person>
    <person id="ped9" depart="55.19" type="ped_pedestrian">
        <walk from="E5" to="E0"/>
    </person>
    <person id="ped10" depart="61.33" type="ped_pedestrian">
        <walk from="E5" to="E4"/>
    </person>
    <person id="ped11" depart="67.46" type="ped_pedestrian">
        <walk from="E17" to="E1"/>
    </person>
    <person id="ped12" depart="73.59" type="ped_pedestrian">
        <walk from="E7" to="E17"/>
    </person>
    <person id="ped13" depart="79.73" type="ped_pedestrian">
        <walk from="E1" to="E1"/>
    </person>
    <person id="ped14" depart="85.86" type="ped_pedestrian">
        <walk from="E6" to="E3"/>
    </person>
    <person id="ped15" depart="91.99" type="ped_pedestrian">
        <walk from="E5" to="E4"/>
    </person>
    <person id="ped16" depart="98.12" type="ped_pedestrian">
        <walk from="E2" to="E7"/>
    </person>
    <person id="ped17" depart="104.26" type="ped_pedestrian">
        <walk from="E17" to="E2"/>
    </person>
    <person id="ped18" depart="110.39" type="ped_pedestrian">
        <walk from="E5" to="E3"/>
    </person>
    <person id="ped19" depart="116.52" type="ped_pedestrian">
        <walk from="E6" to="E2"/>
    </person>
    <person id="ped20" depart="122.66" type="ped_pedestrian">
        <walk from="E4" to="E0"/>
    </person>
    <person id="ped21" depart="128.79" type="ped_pedestrian">
        <walk from="E15" to="E16"/>
    </person>
    <person id="ped22" depart="134.92" type="ped_pedestrian">
        <walk from="E0" to="E15"/>
    </person>
    <person id="ped23" depart="141.05" type="ped_pedestrian">
        <walk from="E1" to="E16"/>
    </person>
    <person id="ped24" depart="147.19" type="ped_pedestrian">
        <walk from="E3" to="E17"/>
    </person>
    <person id="ped25" depart="153.32" type="ped_pedestrian">
        <walk from="E17" to="E15"/>
    </person>
    <person id="ped26" depart="159.45" type="ped_pedestrian">
        <walk from="E16" to="E7"/>
    </person>
    <person id="ped27" depart="165.58" type="ped_pedestrian">
        <walk from="E3" to="E3"/>
    </person>
    <person id="ped28" depart="171.72" type="ped_pedestrian">
        <walk from="E15" to="E4"/>
    </person>
    <person id="ped29" depart="177.85" type="ped_pedestrian">
        <walk from="E1" to="E17"/>
    </person>
    <person id="ped30" depart="183.98" type="ped_pedestrian">
        <walk from="E7" to="E3"/>
    </person>
    <person id="ped31" depart="190.12" type="ped_pedestrian">
        <walk from="E2" to="E4"/>
    </person>
    <person id="ped32" depart="196.25" type="ped_pedestrian">
        <walk from="E6" to="E5"/>
    </person>
    <person id="ped33" depart="202.38" type="ped_pedestrian">
        <walk from="E15" to="E0"/>
    </person>
    <person id="ped34" depart="208.51" type="ped_pedestrian">
        <walk from="E16" to="E16"/>
    </person>
    <person id="ped35" depart="214.65" type="ped_pedestrian">
        <walk from="E15" to="E7"/>
    </person>
    <person id="ped36" depart="220.78" type="ped_pedestrian">
        <walk from="E6" to="E16"/>
    </person>
    <person id="ped37" depart="226.91" type="ped_pedestrian">
        <walk from="E3" to="E17"/>
    </person>
    <person id="ped38" depart="233.04" type="ped_pedestrian">
        <walk from="E6" to="E18"/>
    </person>
    <person id="ped39" depart="239.18" type="ped_pedestrian">
        <walk from="E16" to="E15"/>
    </person>
    <person id="ped40" depart="245.31" type="ped_pedestrian">
        <walk from="E2" to="E16"/>
    </person>
    <person id="ped41" depart="251.44" type="ped_pedestrian">
        <walk from="E3" to="E6"/>
    </person>
    <person id="ped42" depart="257.58" type="ped_pedestrian">
        <walk from="E17" to="E15"/>
    </person>
    <person id="ped43" depart="263.71" type="ped_pedestrian">
        <walk from="E7" to="E2"/>
    </person>
    <person id="ped44" depart="269.84" type="ped_pedestrian">
        <walk from="E1" to="E0"/>
    </person>
    <person id="ped45" depart="275.97" type="ped_pedestrian">
        <walk from="E1" to="E3"/>
    </person>
    <person id="ped46" depart="282.11" type="ped_pedestrian">
        <walk from="E5" to="E18"/>
    </person>
    <person id="ped47" depart="288.24" type="ped_pedestrian">
        <walk from="E0" to="E17"/>
    </person>
    <person id="ped48" depart="294.37" type="ped_pedestrian">
        <walk from="E7" to="E2"/>
    </person>
    <person id="ped49" depart="300.50" type="ped_pedestrian">
        <walk from="E7" to="E6"/>
    </person>
    <person id="ped50" depart="306.64" type="ped_pedestrian">
        <walk from="E0" to="E4"/>
    </person>
    <person id="ped51" depart="312.77" type="ped_pedestrian">
        <walk from="E4" to="E2"/>
    </person>
    <person id="ped52" depart="318.90" type="ped_pedestrian">
        <walk from="E16" to="E3"/>
    </person>
    <person id="ped53" depart="325.04" type="ped_pedestrian">
        <walk from="E1" to="E18"/>
    </person>
    <person id="ped54" depart="331.17" type="ped_pedestrian">
        <walk from="E18" to="E7"/>
    </person>
    <person id="ped55" depart="337.30" type="ped_pedestrian">
        <walk from="E6" to="E16"/>
    </person>
    <person id="ped56" depart="343.43" type="ped_pedestrian">
        <walk from="E2" to="E15"/>
    </person>
    <person id="ped57" depart="349.57" type="ped_pedestrian">
        <walk from="E6" to="E6"/>
    </person>
    <person id="ped58" depart="355.70" type="ped_pedestrian">
        <walk from="E16" to="E3"/>
    </person>
    <person id="ped59" depart="361.83" type="ped_pedestrian">
        <walk from="E3" to="E1"/>
    </person>
    <person id="ped60" depart="367.97" type="ped_pedestrian">
        <walk from="E5" to="E2"/>
    </person>
    <person id="ped61" depart="374.10" type="ped_pedestrian">
        <walk from="E5" to="E2"/>
    </person>
    <person id="ped62" depart="380.23" type="ped_pedestrian">
        <walk from="E0" to="E16"/>
    </person>
    <person id="ped63" depart="386.36" type="ped_pedestrian">
        <walk from="E0" to="E7"/>
    </person>
    <person id="ped64" depart="392.50" type="ped_pedestrian">
        <walk from="E6" to="E5"/>
    </person>
    <person id="ped65" depart="398.63" type="ped_pedestrian">
        <walk from="E16" to="E0"/>
    </person>
    <person id="ped66" depart="404.76" type="ped_pedestrian">
        <walk from="E6" to="E7"/>
    </person>
    <person id="ped67" depart="410.89" type="ped_pedestrian">
        <walk from="E1" to="E18"/>
    </person>
    <person id="ped68" depart="417.03" type="ped_pedestrian">
        <walk from="E0" to="E5"/>
    </person>
    <person id="ped69" depart="423.16" type="ped_pedestrian">
        <walk from="E5" to="E1"/>
    </person>
    <person id="ped70" depart="429.29" type="ped_pedestrian">
        <walk from="E18" to="E2"/>
    </person>
    <person id="ped71" depart="435.43" type="ped_pedestrian">
        <walk from="E16" to="E6"/>
    </person>
    <person id="ped72" depart="441.56" type="ped_pedestrian">
        <walk from="E18" to="E15"/>
    </person>
    <person id="ped73" depart="447.69" type="ped_pedestrian">
        <walk from="E2" to="E4"/>
    </person>
    <person id="ped74" depart="453.82" type="ped_pedestrian">
        <walk from="E15" to="E16"/>
    </person>
    <person id="ped75" depart="459.96" type="ped_pedestrian">
        <walk from="E7" to="E3"/>
    </person>
    <person id="ped76" depart="466.09" type="ped_pedestrian">
        <walk from="E18" to="E2"/>
    </person>
    <person id="ped77" depart="472.22" type="ped_pedestrian">
        <walk from="E1" to="E15"/>
    </person>
    <person id="ped78" depart="478.35" type="ped_pedestrian">
        <walk from="E17" to="E3"/>
    </person>
    <person id="ped79" depart="484.49" type="ped_pedestrian">
        <walk from="E15" to="E15"/>
    </person>
    <person id="ped80" depart="490.62" type="ped_pedestrian">
        <walk from="E0" to="E3"/>
    </person>
    <person id="ped81" depart="496.75" type="ped_pedestrian">
        <walk from="E15" to="E6"/>
    </person>
    <person id="ped82" depart="502.89" type="ped_pedestrian">
        <walk from="E6" to="E0"/>
    </person>
    <person id="ped83" depart="509.02" type="ped_pedestrian">
        <walk from="E15" to="E4"/>
    </person>
    <person id="ped84" depart="515.15" type="ped_pedestrian">
        <walk from="E15" to="E1"/>
    </person>
    <person id="ped85" depart="521.28" type="ped_pedestrian">
        <walk from="E7" to="E2"/>
    </person>
    <person id="ped86" depart="527.42" type="ped_pedestrian">
        <walk from="E18" to="E5"/>
    </person>
    <person id="ped87" depart="533.55" type="ped_pedestrian">
        <walk from="E5" to="E15"/>
    </person>
    <person id="ped88" depart="539.68" type="ped_pedestrian">
        <walk from="E1" to="E18"/>
    </person>
    <person id="ped89" depart="545.82" type="ped_pedestrian">
        <walk from="E18" to="E18"/>
    </person>
    <person id="ped90" depart="551.95" type="ped_pedestrian">
        <walk from="E4" to="E4"/>
    </person>
    <person id="ped91" depart="558.08" type="ped_pedestrian">
        <walk from="E7" to="E1"/>
    </person>
    <person id="ped92" depart="564.21" type="ped_pedestrian">
        <walk from="E17" to="E17"/>
    </person>
    <person id="ped93" depart="570.35" type="ped_pedestrian">
        <walk from="E6" to="E15"/>
    </person>
    <person id="ped94" depart="576.48" type="ped_pedestrian">
        <walk from="E15" to="E18"/>
    </person>
    <person id="ped95" depart="582.61" type="ped_pedestrian">
        <walk from="E18" to="E16"/>
    </person>
    <person id="ped96" depart="588.74" type="ped_pedestrian">
        <walk from="E15" to="E7"/>
    </person>
    <person id="ped97" depart="594.88" type="ped_pedestrian">
        <walk from="E18" to="E6"/>
    </person>
    <person id="ped98" depart="601.01" type="ped_pedestrian">
        <walk from="E2" to="E0"/>
    </person>
    <person id="ped99" depart="607.14" type="ped_pedestrian">
        <walk from="E7" to="E6"/>
    </person>
    <person id="ped100" depart="613.28" type="ped_pedestrian">
        <walk from="E7" to="E7"/>
    </person>
    <person id="ped101" depart="619.41" type="ped_pedestrian">
        <walk from="E6" to="E1"/>
    </person>
    <person id="ped102" depart="625.54" type="ped_pedestrian">
        <walk from="E18" to="E15"/>
    </person>
    <person id="ped103" depart="631.67" type="ped_pedestrian">
        <walk from="E17" to="E0"/>
    </person>
    <person id="ped104" depart="637.81" type="ped_pedestrian">
        <walk from="E17" to="E7"/>
    </person>
    <person id="ped105" depart="643.94" type="ped_pedestrian">
        <walk from="E16" to="E5"/>
    </person>
    <person id="ped106" depart="650.07" type="ped_pedestrian">
        <walk from="E18" to="E18"/>
    </person>
    <person id="ped107" depart="656.20" type="ped_pedestrian">
        <walk from="E7" to="E7"/>
    </person>
    <person id="ped108" depart="662.34" type="ped_pedestrian">
        <walk from="E2" to="E4"/>
    </person>
    <person id="ped109" depart="668.47" type="ped_pedestrian">
        <walk from="E1" to="E16"/>
    </person>
    <person id="ped110" depart="674.60" type="ped_pedestrian">
        <walk from="E7" to="E2"/>
    </person>
    <person id="ped111" depart="680.74" type="ped_pedestrian">
        <walk from="E2" to="E4"/>
    </person>
    <person id="ped112" depart="686.87" type="ped_pedestrian">
        <walk from="E0" to="E3"/>
    </person>
    <person id="ped113" depart="693.00" type="ped_pedestrian">
        <walk from="E2" to="E6"/>
    </person>
    <person id="ped114" depart="699.13" type="ped_pedestrian">
        <walk from="E1" to="E7"/>
    </person>
    <person id="ped115" depart="705.27" type="ped_pedestrian">
        <walk from="E0" to="E15"/>
    </person>
    <person id="ped116" depart="711.40" type="ped_pedestrian">
        <walk from="E3" to="E4"/>
    </person>
    <person id="ped117" depart="717.53" type="ped_pedestrian">
        <walk from="E15" to="E1"/>
    </person>
    <person id="ped118" depart="723.66" type="ped_pedestrian">
        <walk from="E6" to="E15"/>
    </person>
    <person id="ped119" depart="729.80" type="ped_pedestrian">
        <walk from="E3" to="E3"/>
    </person>
    <person id="ped120" depart="735.93" type="ped_pedestrian">
        <walk from="E18" to="E3"/>
    </person>
    <person id="ped121" depart="742.06" type="ped_pedestrian">
        <walk from="E2" to="E7"/>
    </person>
    <person id="ped122" depart="748.20" type="ped_pedestrian">
        <walk from="E15" to="E4"/>
    </person>
    <person id="ped123" depart="754.33" type="ped_pedestrian">
        <walk from="E15" to="E17"/>
    </person>
    <person id="ped124" depart="760.46" type="ped_pedestrian">
        <walk from="E4" to="E16"/>
    </person>
    <person id="ped125" depart="766.59" type="ped_pedestrian">
        <walk from="E16" to="E5"/>
    </person>
    <person id="ped126" depart="772.73" type="ped_pedestrian">
        <walk from="E0" to="E18"/>
    </person>
    <person id="ped127" depart="778.86" type="ped_pedestrian">
        <walk from="E7" to="E7"/>
    </person>
    <person id="ped128" depart="784.99" type="ped_pedestrian">
        <walk from="E0" to="E15"/>
    </person>
    <person id="ped129" depart="791.13" type="ped_pedestrian">
        <walk from="E16" to="E7"/>
    </person>
    <person id="ped130" depart="797.26" type="ped_pedestrian">
        <walk from="E6" to="E6"/>
    </person>
    <person id="ped131" depart="803.39" type="ped_pedestrian">
        <walk from="E17" to="E1"/>
    </person>
    <person id="ped132" depart="809.52" type="ped_pedestrian">
        <walk from="E6" to="E4"/>
    </person>
    <person id="ped133" depart="815.66" type="ped_pedestrian">
        <walk from="E3" to="E7"/>
    </person>
    <person id="ped134" depart="821.79" type="ped_pedestrian">
        <walk from="E3" to="E0"/>
    </person>
    <person id="ped135" depart="827.92" type="ped_pedestrian">
        <walk from="E5" to="E16"/>
    </person>
    <person id="ped136" depart="834.05" type="ped_pedestrian">
        <walk from="E3" to="E7"/>
    </person>
    <person id="ped137" depart="840.19" type="ped_pedestrian">
        <walk from="E1" to="E1"/>
    </person>
    <person id="ped138" depart="846.32" type="ped_pedestrian">
        <walk from="E1" to="E2"/>
    </person>
    <person id="ped139" depart="852.45" type="ped_pedestrian">
        <walk from="E16" to="E3"/>
    </person>
    <person id="ped140" depart="858.59" type="ped_pedestrian">
        <walk from="E4" to="E15"/>
    </person>
    <person id="ped141" depart="864.72" type="ped_pedestrian">
        <walk from="E3" to="E16"/>
    </person>
    <person id="ped142" depart="870.85" type="ped_pedestrian">
        <walk from="E18" to="E6"/>
    </person>
    <person id="ped143" depart="876.98" type="ped_pedestrian">
        <walk from="E6" to="E1"/>
    </person>
    <person id="ped144" depart="883.12" type="ped_pedestrian">
        <walk from="E18" to="E16"/>
    </person>
    <person id="ped145" depart="889.25" type="ped_pedestrian">
        <walk from="E0" to="E5"/>
    </person>
    <person id="ped146" depart="895.38" type="ped_pedestrian">
        <walk from="E3" to="E16"/>
    </person>
    <person id="ped147" depart="901.51" type="ped_pedestrian">
        <walk from="E4" to="E2"/>
    </person>
    <person id="ped148" depart="907.65" type="ped_pedestrian">
        <walk from="E18" to="E0"/>
    </person>
    <person id="ped149" depart="913.78" type="ped_pedestrian">
        <walk from="E0" to="E6"/>
    </person>
    <person id="ped150" depart="919.91" type="ped_pedestrian">
        <walk from="E6" to="E2"/>
    </person>
    <person id="ped151" depart="926.05" type="ped_pedestrian">
        <walk from="E6" to="E2"/>
    </person>
    <person id="ped152" depart="932.18" type="ped_pedestrian">
        <walk from="E1" to="E1"/>
    </person>
    <person id="ped153" depart="938.31" type="ped_pedestrian">
        <walk from="E16" to="E6"/>
    </person>
    <person id="ped154" depart="944.44" type="ped_pedestrian">
        <walk from="E5" to="E6"/>
    </person>
    <person id="ped155" depart="950.58" type="ped_pedestrian">
        <walk from="E6" to="E15"/>
    </person>
    <person id="ped156" depart="956.71" type="ped_pedestrian">
        <walk from="E15" to="E1"/>
    </person>
    <person id="ped157" depart="962.84" type="ped_pedestrian">
        <walk from="E5" to="E6"/>
    </person>
    <person id="ped158" depart="968.98" type="ped_pedestrian">
        <walk from="E17" to="E3"/>
    </person>
    <person id="ped159" depart="975.11" type="ped_pedestrian">
        <walk from="E1" to="E7"/>
    </person>
    <person id="ped160" depart="981.24" type="ped_pedestrian">
        <walk from="E6" to="E7"/>
    </person>
    <person id="ped161" depart="987.37" type="ped_pedestrian">
        <walk from="E5" to="E6"/>
    </person>
    <person id="ped162" depart="993.51" type="ped_pedestrian">
        <walk from="E0" to="E4"/>
    </person>
    <person id="ped163" depart="999.64" type="ped_pedestrian">
        <walk from="E16" to="E7"/>
    </person>
    <person id="ped164" depart="1005.77" type="ped_pedestrian">
        <walk from="E5" to="E6"/>
    </person>
    <person id="ped165" depart="1011.90" type="ped_pedestrian">
        <walk from="E5" to="E16"/>
    </person>
    <person id="ped166" depart="1018.04" type="ped_pedestrian">
        <walk from="E5" to="E1"/>
    </person>
    <person id="ped167" depart="1024.17" type="ped_pedestrian">
        <walk from="E6" to="E6"/>
    </person>
    <person id="ped168" depart="1030.30" type="ped_pedestrian">
        <walk from="E15" to="E5"/>
    </person>
    <person id="ped169" depart="1036.44" type="ped_pedestrian">
        <walk from="E18" to="E16"/>
    </person>
    <person id="ped170" depart="1042.57" type="ped_pedestrian">
        <walk from="E5" to="E15"/>
    </person>
    <person id="ped171" depart="1048.70" type="ped_pedestrian">
        <walk from="E0" to="E15"/>
    </person>
    <person id="ped172" depart="1054.83" type="ped_pedestrian">
        <walk from="E16" to="E6"/>
    </person>
    <person id="ped173" depart="1060.97" type="ped_pedestrian">
        <walk from="E7" to="E16"/>
    </person>
    <person id="ped174" depart="1067.10" type="ped_pedestrian">
        <walk from="E3" to="E17"/>
    </person>
    <person id="ped175" depart="1073.23" type="ped_pedestrian">
        <walk from="E7" to="E2"/>
    </person>
    <person id="ped176" depart="1079.36" type="ped_pedestrian">
        <walk from="E7" to="E1"/>
    </person>
    <person id="ped177" depart="1085.50" type="ped_pedestrian">
        <walk from="E7" to="E15"/>
    </person>
    <person id="ped178" depart="1091.63" type="ped_pedestrian">
        <walk from="E7" to="E16"/>
    </person>
    <person id="ped179" depart="1097.76" type="ped_pedestrian">
        <walk from="E1" to="E18"/>
    </person>
    <person id="ped180" depart="1103.90" type="ped_pedestrian">
        <walk from="E4" to="E16"/>
    </person>
    <person id="ped181" depart="1110.03" type="ped_pedestrian">
        <walk from="E3" to="E2"/>
    </person>
    <person id="ped182" depart="1116.16" type="ped_pedestrian">
        <walk from="E17" to="E2"/>
    </person>
    <person id="ped183" depart="1122.29" type="ped_pedestrian">
        <walk from="E16" to="E4"/>
    </person>
    <person id="ped184" depart="1128.43" type="ped_pedestrian">
        <walk from="E0" to="E7"/>
    </person>
    <person id="ped185" depart="1134.56" type="ped_pedestrian">
        <walk from="E2" to="E4"/>
    </person>
    <person id="ped186" depart="1140.69" type="ped_pedestrian">
        <walk from="E4" to="E4"/>
    </person>
    <person id="ped187" depart="1146.82" type="ped_pedestrian">
        <walk from="E17" to="E0"/>
    </person>
    <person id="ped188" depart="1152.96" type="ped_pedestrian">
        <walk from="E3" to="E16"/>
    </person>
    <person id="ped189" depart="1159.09" type="ped_pedestrian">
        <walk from="E16" to="E6"/>
    </person>
    <person id="ped190" depart="1165.22" type="ped_pedestrian">
        <walk from="E4" to="E16"/>
    </person>
    <person id="ped191" depart="1171.36" type="ped_pedestrian">
        <walk from="E16" to="E17"/>
    </person>
    <person id="ped192" depart="1177.49" type="ped_pedestrian">
        <walk from="E17" to="E16"/>
    </person>
    <person id="ped193" depart="1183.62" type="ped_pedestrian">
        <walk from="E1" to="E18"/>
    </person>
    <person id="ped194" depart="1189.75" type="ped_pedestrian">
        <walk from="E7" to="E4"/>
    </person>
    <person id="ped195" depart="1195.89" type="ped_pedestrian">
        <walk from="E6" to="E3"/>
    </person>
    <person id="ped196" depart="1202.02" type="ped_pedestrian">
        <walk from="E16" to="E2"/>
    </person>
    <person id="ped197" depart="1208.15" type="ped_pedestrian">
        <walk from="E0" to="E16"/>
    </person>
    <person id="ped198" depart="1214.29" type="ped_pedestrian">
        <walk from="E18" to="E2"/>
    </person>
    <person id="ped199" depart="1220.42" type="ped_pedestrian">
        <walk from="E3" to="E18"/>
    </person>
    <person id="ped200" depart="1226.55" type="ped_pedestrian">
        <walk from="E18" to="E15"/>
    </person>
    <person id="ped201" depart="1232.68" type="ped_pedestrian">
        <walk from="E18" to="E6"/>
    </person>
    <person id="ped202" depart="1238.82" type="ped_pedestrian">
        <walk from="E5" to="E15"/>
    </person>
    <person id="ped203" depart="1244.95" type="ped_pedestrian">
        <walk from="E1" to="E2"/>
    </person>
    <person id="ped204" depart="1251.08" type="ped_pedestrian">
        <walk from="E3" to="E17"/>
    </person>
    <person id="ped205" depart="1257.21" type="ped_pedestrian">
        <walk from="E5" to="E5"/>
    </person>
    <person id="ped206" depart="1263.35" type="ped_pedestrian">
        <walk from="E4" to="E15"/>
    </person>
    <person id="ped207" depart="1269.48" type="ped_pedestrian">
        <walk from="E15" to="E0"/>
    </person>
    <person id="ped208" depart="1275.61" type="ped_pedestrian">
        <walk from="E15" to="E18"/>
    </person>
    <person id="ped209" depart="1281.75" type="ped_pedestrian">
        <walk from="E6" to="E0"/>
    </person>
    <person id="ped210" depart="1287.88" type="ped_pedestrian">
        <walk from="E17" to="E3"/>
    </person>
    <person id="ped211" depart="1294.01" type="ped_pedestrian">
        <walk from="E15" to="E4"/>
    </person>
    <person id="ped212" depart="1300.14" type="ped_pedestrian">
        <walk from="E18" to="E15"/>
    </person>
    <person id="ped213" depart="1306.28" type="ped_pedestrian">
        <walk from="E3" to="E0"/>
    </person>
    <person id="ped214" depart="1312.41" type="ped_pedestrian">
        <walk from="E5" to="E5"/>
    </person>
    <person id="ped215" depart="1318.54" type="ped_pedestrian">
        <walk from="E1" to="E18"/>
    </person>
    <person id="ped216" depart="1324.67" type="ped_pedestrian">
        <walk from="E15" to="E7"/>
    </person>
    <person id="ped217" depart="1330.81" type="ped_pedestrian">
        <walk from="E2" to="E0"/>
    </person>
    <person id="ped218" depart="1336.94" type="ped_pedestrian">
        <walk from="E15" to="E6"/>
    </person>
    <person id="ped219" depart="1343.07" type="ped_pedestrian">
        <walk from="E18" to="E5"/>
    </person>
    <person id="ped220" depart="1349.21" type="ped_pedestrian">
        <walk from="E4" to="E7"/>
    </person>
    <person id="ped221" depart="1355.34" type="ped_pedestrian">
        <walk from="E3" to="E7"/>
    </person>
    <person id="ped222" depart="1361.47" type="ped_pedestrian">
        <walk from="E6" to="E3"/>
    </person>
    <person id="ped223" depart="1367.60" type="ped_pedestrian">
        <walk from="E4" to="E2"/>
    </person>
    <person id="ped224" depart="1373.74" type="ped_pedestrian">
        <walk from="E5" to="E2"/>
    </person>
    <person id="ped225" depart="1379.87" type="ped_pedestrian">
        <walk from="E6" to="E4"/>
    </person>
    <person id="ped226" depart="1386.00" type="ped_pedestrian">
        <walk from="E18" to="E16"/>
    </person>
    <person id="ped227" depart="1392.14" type="ped_pedestrian">
        <walk from="E15" to="E3"/>
    </person>
    <person id="ped228" depart="1398.27" type="ped_pedestrian">
        <walk from="E5" to="E2"/>
    </person>
    <person id="ped229" depart="1404.40" type="ped_pedestrian">
        <walk from="E3" to="E16"/>
    </person>
    <person id="ped230" depart="1410.53" type="ped_pedestrian">
        <walk from="E0" to="E16"/>
    </person>
    <person id="ped231" depart="1416.67" type="ped_pedestrian">
        <walk from="E16" to="E16"/>
    </person>
    <person id="ped232" depart="1422.80" type="ped_pedestrian">
        <walk from="E2" to="E1"/>
    </person>
    <person id="ped233" depart="1428.93" type="ped_pedestrian">
        <walk from="E15" to="E4"/>
    </person>
    <person id="ped234" depart="1435.06" type="ped_pedestrian">
        <walk from="E4" to="E0"/>
    </person>
    <person id="ped235" depart="1441.20" type="ped_pedestrian">
        <walk from="E17" to="E2"/>
    </person>
    <person id="ped236" depart="1447.33" type="ped_pedestrian">
        <walk from="E17" to="E15"/>
    </person>
    <person id="ped237" depart="1453.46" type="ped_pedestrian">
        <walk from="E18" to="E6"/>
    </person>
    <person id="ped238" depart="1459.60" type="ped_pedestrian">
        <walk from="E3" to="E4"/>
    </person>
    <person id="ped239" depart="1465.73" type="ped_pedestrian">
        <walk from="E6" to="E5"/>
    </person>
    <person id="ped240" depart="1471.86" type="ped_pedestrian">
        <walk from="E17" to="E0"/>
    </person>
    <person id="ped241" depart="1477.99" type="ped_pedestrian">
        <walk from="E17" to="E5"/>
    </person>
    <person id="ped242" depart="1484.13" type="ped_pedestrian">
        <walk from="E6" to="E7"/>
    </person>
    <person id="ped243" depart="1490.26" type="ped_pedestrian">
        <walk from="E18" to="E4"/>
    </person>
    <person id="ped244" depart="1496.39" type="ped_pedestrian">
        <walk from="E2" to="E3"/>
    </person>
    <person id="ped245" depart="1502.52" type="ped_pedestrian">
        <walk from="E15" to="E15"/>
    </person>
    <person id="ped246" depart="1508.66" type="ped_pedestrian">
        <walk from="E18" to="E0"/>
    </person>
    <person id="ped247" depart="1514.79" type="ped_pedestrian">
        <walk from="E17" to="E4"/>
    </person>
    <person id="ped248" depart="1520.92" type="ped_pedestrian">
        <walk from="E17" to="E1"/>
    </person>
    <person id="ped249" depart="1527.06" type="ped_pedestrian">
        <walk from="E18" to="E1"/>
    </person>
    <person id="ped250" depart="1533.19" type="ped_pedestrian">
        <walk from="E3" to="E0"/>
    </person>
    <person id="ped251" depart="1539.32" type="ped_pedestrian">
        <walk from="E17" to="E2"/>
    </person>
    <person id="ped252" depart="1545.45" type="ped_pedestrian">
        <walk from="E0" to="E3"/>
    </person>
    <person id="ped253" depart="1551.59" type="ped_pedestrian">
        <walk from="E1" to="E18"/>
    </person>
    <person id="ped254" depart="1557.72" type="ped_pedestrian">
        <walk from="E0" to="E17"/>
    </person>
    <person id="ped255" depart="1563.85" type="ped_pedestrian">
        <walk from="E15" to="E16"/>
    </person>
    <person id="ped256" depart="1569.98" type="ped_pedestrian">
        <walk from="E5" to="E17"/>
    </person>
    <person id="ped257" depart="1576.12" type="ped_pedestrian">
        <walk from="E5" to="E5"/>
    </person>
    <person id="ped258" depart="1582.25" type="ped_pedestrian">
        <walk from="E16" to="E0"/>
    </person>
    <person id="ped259" depart="1588.38" type="ped_pedestrian">
        <walk from="E0" to="E2"/>
    </person>
    <person id="ped260" depart="1594.52" type="ped_pedestrian">
        <walk from="E7" to="E17"/>
    </person>
    <person id="ped261" depart="1600.65" type="ped_pedestrian">
        <walk from="E3" to="E5"/>
    </person>
    <person id="ped262" depart="1606.78" type="ped_pedestrian">