<?xml version="1.0" encoding="UTF-8"?>

<!-- generated on 2025-07-03 17:54:24.625674 by randomTrips.py v1_23_1+0000-676720d13f6
<configuration>
    <net-file value="osm.net.xml.gz"/>
    <output-trip-file value="osm.motorcycle.trips.xml"/>
    <route-file value="osm.motorcycle.rou.xml"/>
    <prefix value="motorcycle"/>
    <trip-attributes value="departLane=&quot;best&quot;"/>
    <fringe-start-attributes value="departSpeed=&quot;max&quot;"/>
    <vehicle-class value="motorcycle"/>
    <fringe-factor value="2"/>
    <edge-permission value="motorcycle"/>
    <via-edge-types value="highway.motorway,highway.motorway_link,highway.trunk_link,highway.primary_link,highway.secondary_link,highway.tertiary_link"/>
    <max-distance value="1200.0"/>
    <remove-loops value="True"/>
    <validate value="True"/>
    <insertion-density value="40.0"/>
</configuration>
-->

<routes xmlns:xsi="http://www.w3.org/2001/XMLSchema-instance" xsi:noNamespaceSchemaLocation="http://sumo.dlr.de/xsd/routes_file.xsd">
    <vType id="motorcycle_motorcycle" vClass="motorcycle"/>
    <trip id="motorcycle0" depart="0.00" from="E16" to="E13" departLane="best" type="motorcycle_motorcycle" departSpeed="max"/>
    <trip id="motorcycle1" depart="9.22" from="E7" to="E10" departLane="best" type="motorcycle_motorcycle"/>
    <trip id="motorcycle2" depart="18.43" from="E12" to="E2" departLane="best" type="motorcycle_motorcycle" departSpeed="max"/>
    <trip id="motorcycle3" depart="27.65" from="E0" to="E13" departLane="best" type="motorcycle_motorcycle"/>
    <trip id="motorcycle4" depart="36.87" from="E23" to="E20" departLane="best" type="motorcycle_motorcycle" departSpeed="max"/>
    <trip id="motorcycle5" depart="46.08" from="E12" to="E20" departLane="best" type="motorcycle_motorcycle" departSpeed="max"/>
    <trip id="motorcycle6" depart="55.30" from="E5" to="E22" departLane="best" type="motorcycle_motorcycle"/>
    <trip id="motorcycle7" depart="64.52" from="E18" to="E10" departLane="best" type="motorcycle_motorcycle" departSpeed="max"/>
    <trip id="motorcycle8" depart="73.74" from="E9" to="E15" departLane="best" type="motorcycle_motorcycle" departSpeed="max"/>
    <trip id="motorcycle9" depart="82.95" from="E18" to="E20" departLane="best" type="motorcycle_motorcycle" departSpeed="max"/>
    <trip id="motorcycle10" depart="92.17" from="E5" to="E20" departLane="best" type="motorcycle_motorcycle"/>
    <trip id="motorcycle11" depart="101.39" from="E23" to="E1" departLane="best" type="motorcycle_motorcycle" departSpeed="max"/>
    <trip id="motorcycle12" depart="110.60" from="E12" to="E14" departLane="best" type="motorcycle_motorcycle" departSpeed="max"/>
    <trip id="motorcycle13" depart="119.82" from="E11" to="E14" departLane="best" type="motorcycle_motorcycle" departSpeed="max"/>
    <trip id="motorcycle14" depart="129.04" from="E23" to="E15" departLane="best" type="motorcycle_motorcycle" departSpeed="max"/>
    <trip id="motorcycle15" depart="138.25" from="E18" to="E13" departLane="best" type="motorcycle_motorcycle" departSpeed="max"/>
    <trip id="motorcycle16" depart="147.47" from="E16" to="E8" departLane="best" type="motorcycle_motorcycle" departSpeed="max"/>
    <trip id="motorcycle17" depart="156.69" from="E23" to="E20" departLane="best" type="motorcycle_motorcycle" departSpeed="max"/>
    <trip id="motorcycle18" depart="165.90" from="E11" to="E15" departLane="best" type="motorcycle_motorcycle" departSpeed="max"/>
    <trip id="motorcycle19" depart="175.12" from="E9" to="E22" departLane="best" type="motorcycle_motorcycle" departSpeed="max"/>
    <trip id="motorcycle20" depart="184.34" from="E21" to="E22" departLane="best" type="motorcycle_motorcycle" departSpeed="max"/>
    <trip id="motorcycle21" depart="193.56" from="E16" to="E14" departLane="best" type="motorcycle_motorcycle" departSpeed="max"/>
    <trip id="motorcycle22" depart="202.77" from="E12" to="E8" departLane="best" type="motorcycle_motorcycle" departSpeed="max"/>
    <trip id="motorcycle23" depart="211.99" from="E23" to="E15" departLane="best" type="motorcycle_motorcycle" departSpeed="max"/>
    <trip id="motorcycle24" depart="221.21" from="E7" to="E17" departLane="best" type="motorcycle_motorcycle"/>
    <trip id="motorcycle25" depart="230.42" from="E16" to="E13" departLane="best" type="motorcycle_motorcycle" departSpeed="max"/>
    <trip id="motorcycle26" depart="239.64" from="E21" to="E14" departLane="best" type="motorcycle_motorcycle" departSpeed="max"/>
    <trip id="motorcycle27" depart="248.86" from="E18" to="E13" departLane="best" type="motorcycle_motorcycle" departSpeed="max"/>
    <trip id="motorcycle28" depart="258.07" from="E9" to="E2" departLane="best" type="motorcycle_motorcycle" departSpeed="max"/>
    <trip id="motorcycle29" depart="267.29" from="E11" to="E1" departLane="best" type="motorcycle_motorcycle" departSpeed="max"/>
    <trip id="motorcycle30" depart="276.51" from="E11" to="E22" departLane="best" type="motorcycle_motorcycle" departSpeed="max"/>
    <trip id="motorcycle31" depart="285.72" from="E1" to="E15" departLane="best" type="motorcycle_motorcycle"/>
    <trip id="motorcycle32" depart="294.94" from="E9" to="E2" departLane="best" type="motorcycle_motorcycle" departSpeed="max"/>
    <trip id="motorcycle33" depart="304.16" from="E9" to="E6" departLane="best" type="motorcycle_motorcycle" departSpeed="max"/>
    <trip id="motorcycle34" depart="313.38" from="E16" to="E22" departLane="best" type="motorcycle_motorcycle" departSpeed="max"/>
    <trip id="motorcycle35" depart="322.59" from="E11" to="E17" departLane="best" type="motorcycle_motorcycle" departSpeed="max"/>
    <trip id="motorcycle36" depart="331.81" from="E19" to="E8" departLane="best" type="motorcycle_motorcycle" departSpeed="max"/>
    <trip id="motorcycle37" depart="341.03" from="E16" to="E22" departLane="best" type="motorcycle_motorcycle" departSpeed="max"/>
    <trip id="motorcycle38" depart="350.24" from="E21" to="E10" departLane="best" type="motorcycle_motorcycle" departSpeed="max"/>
    <trip id="motorcycle39" depart="359.46" from="E0" to="E14" departLane="best" type="motorcycle_motorcycle"/>
    <trip id="motorcycle40" depart="368.68" from="E16" to="E1" departLane="best" type="motorcycle_motorcycle" departSpeed="max"/>
    <trip id="motorcycle41" depart="377.89" from="E7" to="E8" departLane="best" type="motorcycle_motorcycle"/>
    <trip id="motorcycle42" depart="387.11" from="E11" to="E17" departLane="best" type="motorcycle_motorcycle" departSpeed="max"/>
    <trip id="motorcycle43" depart="396.33" from="E4" to="E10" departLane="best" type="motorcycle_motorcycle"/>
    <trip id="motorcycle44" depart="405.54" from="E19" to="E20" departLane="best" type="motorcycle_motorcycle" departSpeed="max"/>
    <trip id="motorcycle45" depart="414.76" from="E16" to="E6" departLane="best" type="motorcycle_motorcycle" departSpeed="max"/>
    <trip id="motorcycle46" depart="423.98" from="E19" to="E13" departLane="best" type="motorcycle_motorcycle" departSpeed="max"/>
    <trip id="motorcycle47" depart="433.20" from="E12" to="E14" departLane="best" type="motorcycle_motorcycle" departSpeed="max"/>
    <trip id="motorcycle48" depart="442.41" from="E9" to="E22" departLane="best" type="motorcycle_motorcycle" departSpeed="max"/>
    <trip id="motorcycle49" depart="451.63" from="E19" to="E2" departLane="best" type="motorcycle_motorcycle" departSpeed="max"/>
    <trip id="motorcycle50" depart="460.85" from="E11" to="E13" departLane="best" type="motorcycle_motorcycle" departSpeed="max"/>
    <trip id="motorcycle51" depart="470.06" from="E18" to="E20" departLane="best" type="motorcycle_motorcycle" departSpeed="max"/>
    <trip id="motorcycle52" depart="479.28" from="E12" to="E7" departLane="best" type="motorcycle_motorcycle" departSpeed="max"/>
    <trip id="motorcycle53" depart="488.50" from="E12" to="E22" departLane="best" type="motorcycle_motorcycle" departSpeed="max"/>
    <trip id="motorcycle54" depart="497.71" from="E12" to="E10" departLane="best" type="motorcycle_motorcycle" departSpeed="max"/>
    <trip id="motorcycle55" depart="506.93" from="E9" to="E20" departLane="best" type="motorcycle_motorcycle" departSpeed="max"/>
    <trip id="motorcycle56" depart="516.15" from="E19" to="E4" departLane="best" type="motorcycle_motorcycle" departSpeed="max"/>
    <trip id="motorcycle57" depart="525.36" from="E5" to="E13" departLane="best" type="motorcycle_motorcycle"/>
    <trip id="motorcycle58" depart="534.58" from="E11" to="E17" departLane="best" type="motorcycle_motorcycle" departSpeed="max"/>
    <trip id="motorcycle59" depart="543.80" from="E19" to="E17" departLane="best" type="motorcycle_motorcycle" departSpeed="max"/>
    <trip id="motorcycle60" depart="553.02" from="E9" to="E10" departLane="best" type="motorcycle_motorcycle" departSpeed="max"/>
    <trip id="motorcycle61" depart="562.23" from="E18" to="E15" departLane="best" type="motorcycle_motorcycle" departSpeed="max"/>
    <trip id="motorcycle62" depart="571.45" from="E6" to="E13" departLane="best" type="motorcycle_motorcycle"/>
    <trip id="motorcycle63" depart="580.67" from="E12" to="E17" departLane="best" type="motorcycle_motorcycle" departSpeed="max"/>
    <trip id="motorcycle64" depart="589.88" from="E19" to="E14" departLane="best" type="motorcycle_motorcycle" departSpeed="max"/>
    <trip id="motorcycle65" depart="599.10" from="E12" to="E8" departLane="best" type="motorcycle_motorcycle" departSpeed="max"/>
    <trip id="motorcycle66" depart="608.32" from="E21" to="E1" departLane="best" type="motorcycle_motorcycle" departSpeed="max"/>
    <trip id="motorcycle67" depart="617.53" from="E9" to="E6" departLane="best" type="motorcycle_motorcycle" departSpeed="max"/>
    <trip id="motorcycle68" depart="626.75" from="E19" to="E13" departLane="best" type="motorcycle_motorcycle" departSpeed="max"/>
    <trip id="motorcycle69" depart="635.97" from="E18" to="E8" departLane="best" type="motorcycle_motorcycle" departSpeed="max"/>
    <trip id="motorcycle70" depart="645.18" from="E19" to="E17" departLane="best" type="motorcycle_motorcycle" departSpeed="max"/>
    <trip id="motorcycle71" depart="654.40" from="E21" to="E3" departLane="best" type="motorcycle_motorcycle" departSpeed="max"/>
    <trip id="motorcycle72" depart="663.62" from="E11" to="E14" departLane="best" type="motorcycle_motorcycle" departSpeed="max"/>
    <trip id="motorcycle73" depart="672.84" from="E9" to="E20" departLane="best" type="motorcycle_motorcycle" departSpeed="max"/>
    <trip id="motorcycle74" depart="682.05" from="E21" to="E3" departLane="best" type="motorcycle_motorcycle" departSpeed="max"/>
    <trip id="motorcycle75" depart="691.27" from="E11" to="E8" departLane="best" type="motorcycle_motorcycle" departSpeed="max"/>
    <trip id="motorcycle76" depart="700.49" from="E21" to="E22" departLane="best" type="motorcycle_motorcycle" departSpeed="max"/>
    <trip id="motorcycle77" depart="709.70" from="E12" to="E10" departLane="best" type="motorcycle_motorcycle" departSpeed="max"/>
    <trip id="motorcycle78" depart="718.92" from="E19" to="E20" departLane="best" type="motorcycle_motorcycle" departSpeed="max"/>
    <trip id="motorcycle79" depart="728.14" from="E12" to="E15" departLane="best" type="motorcycle_motorcycle" departSpeed="max"/>
    <trip id="motorcycle80" depart="737.35" from="E23" to="E14" departLane="best" type="motorcycle_motorcycle" departSpeed="max"/>
    <trip id="motorcycle81" depart="746.57" from="E16" to="E8" departLane="best" type="motorcycle_motorcycle" departSpeed="max"/>
    <trip id="motorcycle82" depart="755.79" from="E7" to="E7" departLane="best" type="motorcycle_motorcycle"/>
    <trip id="motorcycle83" depart="765.00" from="E18" to="E10" departLane="best" type="motorcycle_motorcycle" departSpeed="max"/>
    <trip id="motorcycle84" depart="774.22" from="E21" to="E8" departLane="best" type="motorcycle_motorcycle" departSpeed="max"/>
    <trip id="motorcycle85" depart="783.44" from="E5" to="E14" departLane="best" type="motorcycle_motorcycle"/>
    <trip id="motorcycle86" depart="792.66" from="E23" to="E8" departLane="best" type="motorcycle_motorcycle" departSpeed="max"/>
    <trip id="motorcycle87" depart="801.87" from="E11" to="E20" departLane="best" type="motorcycle_motorcycle" departSpeed="max"/>
    <trip id="motorcycle88" depart="811.09" from="E16" to="E20" departLane="best" type="motorcycle_motorcycle" departSpeed="max"/>
    <trip id="motorcycle89" depart="820.31" from="E3" to="E13" departLane="best" type="motorcycle_motorcycle"/>
    <trip id="motorcycle90" depart="829.52" from="E23" to="E14" departLane="best" type="motorcycle_motorcycle" departSpeed="max"/>
    <trip id="motorcycle91" depart="838.74" from="E19" to="E7" departLane="best" type="motorcycle_motorcycle" departSpeed="max"/>
    <trip id="motorcycle92" depart="847.96" from="E19" to="E14" departLane="best" type="motorcycle_motorcycle" departSpeed="max"/>
    <trip id="motorcycle93" depart="857.17" from="E0" to="E4" departLane="best" type="motorcycle_motorcycle"/>
    <trip id="motorcycle94" depart="866.39" from="E23" to="E14" departLane="best" type="motorcycle_motorcycle" departSpeed="max"/>
    <trip id="motorcycle95" depart="875.61" from="E7" to="E20" departLane="best" type="motorcycle_motorcycle"/>
    <trip id="motorcycle96" depart="884.82" from="E5" to="E6" departLane="best" type="motorcycle_motorcycle"/>
    <trip id="motorcycle97" depart="894.04" from="E12" to="E10" departLane="best" type="motorcycle_motorcycle" departSpeed="max"/>
    <trip id="motorcycle98" depart="903.26" from="E18" to="E20" departLane="best" type="motorcycle_motorcycle" departSpeed="max"/>
    <trip id="motorcycle99" depart="912.48" from="E11" to="E8" departLane="best" type="motorcycle_motorcycle" departSpeed="max"/>
    <trip id="motorcycle100" depart="921.69" from="E16" to="E8" departLane="best" type="motorcycle_motorcycle" departSpeed="max"/>
    <trip id="motorcycle101" depart="930.91" from="E5" to="E6" departLane="best" type="motorcycle_motorcycle"/>
    <trip id="motorcycle102" depart="940.13" from="E5" to="E14" departLane="best" type="motorcycle_motorcycle"/>
    <trip id="motorcycle103" depart="949.34" from="E4" to="E10" departLane="best" type="motorcycle_motorcycle"/>
    <trip id="motorcycle104" depart="958.56" from="E6" to="E6" departLane="best" type="motorcycle_motorcycle"/>
    <trip id="motorcycle105" depart="967.78" from="E19" to="E14" departLane="best" type="motorcycle_motorcycle" departSpeed="max"/>
    <trip id="motorcycle106" depart="976.99" from="E5" to="E13" departLane="best" type="motorcycle_motorcycle"/>
    <trip id="motorcycle107" depart="986.21" from="E0" to="E13" departLane="best" type="motorcycle_motorcycle"/>
    <trip id="motorcycle108" depart="995.43" from="E16" to="E6" departLane="best" type="motorcycle_motorcycle" departSpeed="max"/>
    <trip id="motorcycle109" depart="1004.64" from="E9" to="E14" departLane="best" type="motorcycle_motorcycle" departSpeed="max"/>
    <trip id="motorcycle110" depart="1013.86" from="E23" to="E15" departLane="best" type="motorcycle_motorcycle" departSpeed="max"/>
    <trip id="motorcycle111" depart="1023.08" from="E9" to="E2" departLane="best" type="motorcycle_motorcycle" departSpeed="max"/>
    <trip id="motorcycle112" depart="1032.30" from="E9" to="E10" departLane="best" type="motorcycle_motorcycle" departSpeed="max"/>
    <trip id="motorcycle113" depart="1041.51" from="E9" to="E13" departLane="best" type="motorcycle_motorcycle" departSpeed="max"/>
    <trip id="motorcycle114" depart="1050.73" from="E9" to="E14" departLane="best" type="motorcycle_motorcycle" departSpeed="max"/>
    <trip id="motorcycle115" depart="1059.95" from="E11" to="E17" departLane="best" type="motorcycle_motorcycle" departSpeed="max"/>
    <trip id="motorcycle116" depart="1069.16" from="E3" to="E14" departLane="best" type="motorcycle_motorcycle"/>
    <trip id="motorcycle117" depart="1078.38" from="E18" to="E20" departLane="best" type="motorcycle_motorcycle" departSpeed="max"/>
    <trip id="motorcycle118" depart="1087.60" from="E23" to="E14" departLane="best" type="motorcycle_motorcycle" departSpeed="max"/>
    <trip id="motorcycle119" depart="1096.81" from="E16" to="E6" departLane="best" type="motorcycle_motorcycle" departSpeed="max"/>
    <trip id="motorcycle120" depart="1106.03" from="E3" to="E14" departLane="best" type="motorcycle_motorcycle"/>
    <trip id="motorcycle121" depart="1115.25" from="E16" to="E15" departLane="best" type="motorcycle_motorcycle" departSpeed="max"/>
    <trip id="motorcycle122" depart="1124.46" from="E18" to="E14" departLane="best" type="motorcycle_motorcycle" departSpeed="max"/>
    <trip id="motorcycle123" depart="1133.68" from="E11" to="E17" departLane="best" type="motorcycle_motorcycle" departSpeed="max"/>
    <trip id="motorcycle124" depart="1142.90" from="E9" to="E22" departLane="best" type="motorcycle_motorcycle" departSpeed="max"/>
    <trip id="motorcycle125" depart="1152.12" from="E7" to="E20" departLane="best" type="motorcycle_motorcycle"/>
    <trip id="motorcycle126" depart="1161.33" from="E16" to="E20" departLane="best" type="motorcycle_motorcycle" departSpeed="max"/>
    <trip id="motorcycle127" depart="1170.55" from="E0" to="E14" departLane="best" type="motorcycle_motorcycle"/>
    <trip id="motorcycle128" depart="1179.77" from="E19" to="E20" departLane="best" type="motorcycle_motorcycle" departSpeed="max"/>
    <trip id="motorcycle129" depart="1188.98" from="E23" to="E17" departLane="best" type="motorcycle_motorcycle" departSpeed="max"/>
    <trip id="motorcycle130" depart="1198.20" from="E19" to="E13" departLane="best" type="motorcycle_motorcycle" departSpeed="max"/>
    <trip id="motorcycle131" depart="1207.42" from="E19" to="E7" departLane="best" type="motorcycle_motorcycle" departSpeed="max"/>
    <trip id="motorcycle132" depart="1216.63" from="E5" to="E13" departLane="best" type="motorcycle_motorcycle"/>
    <trip id="motorcycle133" depart="1225.85" from="E11" to="E2" departLane="best" type="motorcycle_motorcycle" departSpeed="max"/>
    <trip id="motorcycle134" depart="1235.07" from="E23" to="E15" departLane="best" type="motorcycle_motorcycle" departSpeed="max"/>
    <trip id="motorcycle135" depart="1244.28" from="E23" to="E13" departLane="best" type="motorcycle_motorcycle" departSpeed="max"/>
    <trip id="motorcycle136" depart="1253.50" from="E12" to="E17" departLane="best" type="motorcycle_motorcycle" departSpeed="max"/>
    <trip id="motorcycle137" depart="1262.72" from="E18" to="E22" departLane="best" type="motorcycle_motorcycle" departSpeed="max"/>
    <trip id="motorcycle138" depart="1271.93" from="E12" to="E22" departLane="best" type="motorcycle_motorcycle" departSpeed="max"/>
    <trip id="motorcycle139" depart="1281.15" from="E19" to="E13" departLane="best" type="motorcycle_motorcycle" departSpeed="max"/>
    <trip id="motorcycle140" depart="1290.37" from="E4" to="E4" departLane="best" type="motorcycle_motorcycle"/>
    <trip id="motorcycle141" depart="1299.59" from="E11" to="E17" departLane="best" type="motorcycle_motorcycle" departSpeed="max"/>
    <trip id="motorcycle142" depart="1308.80" from="E12" to="E8" departLane="best" type="motorcycle_motorcycle" departSpeed="max"/>
    <trip id="motorcycle143" depart="1318.02" from="E23" to="E8" departLane="best" type="motorcycle_motorcycle" departSpeed="max"/>
    <trip id="motorcycle144" depart="1327.24" from="E21" to="E8" departLane="best" type="motorcycle_motorcycle" departSpeed="max"/>
    <trip id="motorcycle145" depart="1336.45" from="E7" to="E20" departLane="best" type="motorcycle_motorcycle"/>
    <trip id="motorcycle146" depart="1345.67" from="E5" to="E20" departLane="best" type="motorcycle_motorcycle"/>
    <trip id="motorcycle147" depart="1354.89" from="E19" to="E14" departLane="best" type="motorcycle_motorcycle" departSpeed="max"/>
    <trip id="motorcycle148" depart="1364.10" from="E12" to="E22" departLane="best" type="motorcycle_motorcycle" departSpeed="max"/>
    <trip id="motorcycle149" depart="1373.32" from="E23" to="E14" departLane="best" type="motorcycle_motorcycle" departSpeed="max"/>
    <trip id="motorcycle150" depart="1382.54" from="E16" to="E14" departLane="best" type="motorcycle_motorcycle" departSpeed="max"/>
    <trip id="motorcycle151" depart="1391.75" from="E12" to="E22" departLane="best" type="motorcycle_motorcycle" departSpeed="max"/>
    <trip id="motorcycle152" depart="1400.97" from="E23" to="E1" departLane="best" type="motorcycle_motorcycle" departSpeed="max"/>
    <trip id="motorcycle153" depart="1410.19" from="E18" to="E20" departLane="best" type="motorcycle_motorcycle" departSpeed="max"/>
    <trip id="motorcycle154" depart="1419.41" from="E18" to="E13" departLane="best" type="motorcycle_motorcycle" departSpeed="max"/>
    <trip id="motorcycle155" depart="1428.62" from="E19" to="E7" departLane="best" type="motorcycle_motorcycle" departSpeed="max"/>
    <trip id="motorcycle156" depart="1437.84" from="E21" to="E22" departLane="best" type="motorcycle_motorcycle" departSpeed="max"/>
    <trip id="motorcycle157" depart="1447.06" from="E18" to="E0" departLane="best" type="motorcycle_motorcycle" departSpeed="max"/>
    <trip id="motorcycle158" depart="1456.27" from="E18" to="E4" departLane="best" type="motorcycle_motorcycle" departSpeed="max"/>
    <trip id="motorcycle159" depart="1465.49" from="E18" to="E22" departLane="best" type="motorcycle_motorcycle" departSpeed="max"/>
    <trip id="motorcycle160" depart="1474.71" from="E18" to="E10" departLane="best" type="motorcycle_motorcycle" departSpeed="max"/>
    <trip id="motorcycle161" depart="1483.92" from="E19" to="E10" departLane="best" type="motorcycle_motorcycle" departSpeed="max"/>
    <trip id="motorcycle162" depart="1493.14" from="E18" to="E20" departLane="best" type="motorcycle_motorcycle" departSpeed="max"/>
    <trip id="motorcycle163" depart="1502.36" from="E0" to="E22" departLane="best" type="motorcycle_motorcycle"/>
    <trip id="motorcycle164" depart="1511.57" from="E11" to="E17" departLane="best" type="motorcycle_motorcycle" departSpeed="max"/>
    <trip id="motorcycle165" depart="1520.79" from="E1" to="E15" departLane="best" type="motorcycle_motorcycle"/>
    <trip id="motorcycle166" depart="1530.01" from="E12" to="E14" departLane="best" type="motorcycle_motorcycle" departSpeed="max"/>
    <trip id="motorcycle167" depart="1539.23" from="E16" to="E1" departLane="best" type="motorcycle_motorcycle" departSpeed="max"/>
    <trip id="motorcycle168" depart="1548.44" from="E0" to="E2" departLane="best" type="motorcycle_motorcycle"/>
    <trip id="motorcycle169" depart="1557.66" from="E9" to="E15" departLane="best" type="motorcycle_motorcycle" departSpeed="max"/>
    <trip id="motorcycle170" depart="1566.88" from="E23" to="E4" departLane="best" type="motorcycle_motorcycle" departSpeed="max"/>
    <trip id="motorcycle171" depart="1576.09" from="E23" to="E4" departLane="best" type="motorcycle_motorcycle" departSpeed="max"/>
    <trip id="motorcycle172" depart="1585.31" from="E9" to="E13" departLane="best" type="motorcycle_motorcycle" departSpeed="max"/>
    <trip id="motorcycle173" depart="1594.53" from="E0" to="E10" departLane="best" type="motorcycle_motorcycle"/>
    <trip id="motorcycle174" depart="1603.74" from="E11" to="E22" departLane="best" type="motorcycle_motorcycle" departSpeed="max"/>
    <trip id="motorcycle175" depart="1612.96" from="E21" to="E13" departLane="best" type="motorcycle_motorcycle" departSpeed="max"/>
    <trip id="motorcycle176" depart="1622.18" from="E23" to="E4" departLane="best" type="motorcycle_motorcycle" departSpeed="max"/>
    <trip id="motorcycle177" depart="1631.39" from="E12" to="E20" departLane="best" type="motorcycle_motorcycle" departSpeed="max"/>
    <trip id="motorcycle178" depart="1640.61" from="E3" to="E10" departLane="best" type="motorcycle_motorcycle"/>
    <trip id="motorcycle179" depart="1649.83" from="E5" to="E8" departLane="best" type="motorcycle_motorcycle"/>
    <trip id="motorcycle180" depart="1659.05" from="E16" to="E22" departLane="best" type="motorcycle_motorcycle" departSpeed="max"/>
    <trip id="motorcycle181" depart="1668.26" from="E9" to="E15" departLane="best" type="motorcycle_motorcycle" departSpeed="max"/>
    <trip id="motorcycle182" depart="1677.48" from="E3" to="E1" departLane="best" type="motorcycle_motorcycle"/>
    <trip id="motorcycle183" depart="1686.70" from="E23" to="E22" departLane="best" type="motorcycle_motorcycle" departSpeed="max"/>
    <trip id="motorcycle184" depart="1695.91" from="E11" to="E8" departLane="best" type="motorcycle_motorcycle" departSpeed="max"/>
    <trip id="motorcycle185" depart="1705.13" from="E19" to="E15" departLane="best" type="motorcycle_motorcycle" departSpeed="max"/>
    <trip id="motorcycle186" depart="1714.35" from="E11" to="E8" departLane="best" type="motorcycle_motorcycle" departSpeed="max"/>
    <trip id="motorcycle187" depart="1723.56" from="E23" to="E17" departLane="best" type="motorcycle_motorcycle" departSpeed="max"/>
    <trip id="motorcycle188" depart="1732.78" from="E3" to="E8" departLane="best" type="motorcycle_motorcycle"/>
    <trip id="motorcycle189" depart="1742.00" from="E16" to="E5" departLane="best" type="motorcycle_motorcycle" departSpeed="max"/>
    <trip id="motorcycle190" depart="1751.21" from="E16" to="E6" departLane="best" type="motorcycle_motorcycle" departSpeed="max"/>
    <trip id="motorcycle191" depart="1760.43" from="E19" to="E20" departLane="best" type="motorcycle_motorcycle" departSpeed="max"/>
    <trip id="motorcycle192" depart="1769.65" from="E18" to="E0" departLane="best" type="motorcycle_motorcycle" departSpeed="max"/>
    <trip id="motorcycle193" depart="1778.87" from="E6" to="E13" departLane="best" type="motorcycle_motorcycle"/>
    <trip id="motorcycle194" depart="1788.08" from="E23" to="E14" departLane="best" type="motorcycle_motorcycle" departSpeed="max"/>
    <trip id="motorcycle195" depart="1797.30" from="E19" to="E4" departLane="best" type="motorcycle_motorcycle" departSpeed="max"/>
    <trip id="motorcycle196" depart="1806.52" from="E23" to="E22" departLane="best" type="motorcycle_motorcycle" departSpeed="max"/>
    <trip id="motorcycle197" depart="1815.73" from="E11" to="E13" departLane="best" type="motorcycle_motorcycle" departSpeed="max"/>
    <trip id="motorcycle198" depart="1824.95" from="E23" to="E14" departLane="best" type="motorcycle_motorcycle" departSpeed="max"/>
    <trip id="motorcycle199" depart="1834.17" from="E21" to="E17" departLane="best" type="motorcycle_motorcycle" departSpeed="max"/>
    <trip id="motorcycle200" depart="1843.38" from="E3" to="E14" departLane="best" type="motorcycle_motorcycle"/>
    <trip id="motorcycle201" depart="1852.60" from="E23" to="E14" departLane="best" type="motorcycle_motorcycle" departSpeed="max"/>
    <trip id="motorcycle202" depart="1861.82" from="E16" to="E10" departLane="best" type="motorcycle_motorcycle" departSpeed="max"/>
    <trip id="motorcycle203" depart="1871.03" from="E12" to="E10" departLane="best" type="motorcycle_motorcycle" departSpeed="max"/>
    <trip id="motorcycle204" depart="1880.25" from="E9" to="E2" departLane="best" type="motorcycle_motorcycle" departSpeed="max"/>
    <trip id="motorcycle205" depart="1889.47" from="E16" to="E10" departLane="best" type="motorcycle_motorcycle" departSpeed="max"/>
    <trip id="motorcycle206" depart="1898.69" from="E9" to="E20" departLane="best" type="motorcycle_motorcycle" departSpeed="max"/>
    <trip id="motorcycle207" depart="1907.90" from="E23" to="E10" departLane="best" type="motorcycle_motorcycle" departSpeed="max"/>
    <trip id="motorcycle208" depart="1917.12" from="E19" to="E17" departLane="best" type="motorcycle_motorcycle" departSpeed="max"/>
    <trip id="motorcycle209" depart="1926.34" from="E12" to="E1" departLane="best" type="motorcycle_motorcycle" departSpeed="max"/>
    <trip id="motorcycle210" depart="1935.55" from="E9" to="E17" departLane="best" type="motorcycle_motorcycle" departSpeed="max"/>
    <trip id="motorcycle211" depart="1944.77" from="E5" to="E15" departLane="best" type="motorcycle_motorcycle"/>
    <trip id="motorcycle212" depart="1953.99" from="E21" to="E14" departLane="best" type="motorcycle_motorcycle" departSpeed="max"/>
    <trip id="motorcycle213" depart="1963.20" from="E9" to="E10" departLane="best" type="motorcycle_motorcycle" departSpeed="max"/>
    <trip id="motorcycle214" depart="1972.42" from="E9" to="E14" departLane="best" type="motorcycle_motorcycle" departSpeed="max"/>
    <trip id="motorcycle215" depart="1981.64" from="E3" to="E8" departLane="best" type="motorcycle_motorcycle"/>
    <trip id="motorcycle216" depart="1990.85" from="E23" to="E10" departLane="best" type="motorcycle_motorcycle" departSpeed="max"/>
    <trip id="motorcycle217" depart="2000.07" from="E12" to="E1" departLane="best" type="motorcycle_motorcycle" departSpeed="max"/>
    <trip id="motorcycle218" depart="2009.29" from="E0" to="E17" departLane="best" type="motorcycle_motorcycle"/>
    <trip id="motorcycle219" depart="2018.51" from="E21" to="E14" departLane="best" type="motorcycle_motorcycle" departSpeed="max"/>
    <trip id="motorcycle220" depart="2027.72" from="E12" to="E22" departLane="best" type="motorcycle_motorcycle" departSpeed="max"/>
    <trip id="motorcycle221" depart="2036.94" from="E23" to="E17" departLane="best" type="motorcycle_motorcycle" departSpeed="max"/>
    <trip id="motorcycle222" depart="2046.16" from="E23" to="E8" departLane="best" type="motorcycle_motorcycle" departSpeed="max"/>
    <trip id="motorcycle223" depart="2055.37" from="E23" to="E8" departLane="best" type="motorcycle_motorcycle" departSpeed="max"/>
    <trip id="motorcycle224" depart="2064.59" from="E19" to="E20" departLane="best" type="motorcycle_motorcycle" departSpeed="max"/>
    <trip id="motorcycle225" depart="2073.81" from="E5" to="E1" departLane="best" type="motorcycle_motorcycle"/>