<?xml version="1.0" encoding="UTF-8"?>

<!-- generated on 2025-07-12 21:49:10.521365 by randomTrips.py v1_23_1+0000-676720d13f6
<configuration>
    <net-file value="osm.net.xml.gz"/>
    <output-trip-file value="osm.bicycle.trips.xml"/>
    <route-file value="osm.bicycle.rou.xml"/>
    <prefix value="bike"/>
    <trip-attributes value="departLane=&quot;best&quot;"/>
    <fringe-start-attributes value="departSpeed=&quot;max&quot;"/>
    <vehicle-class value="bicycle"/>
    <fringe-factor value="2"/>
    <edge-permission value="bicycle"/>
    <via-edge-types value="highway.motorway,highway.motorway_link,highway.trunk_link,highway.primary_link,highway.secondary_link,highway.tertiary_link"/>
    <max-distance value="8000.0"/>
    <remove-loops value="True"/>
    <validate value="True"/>
    <insertion-density value="60.0"/>
</configuration>
-->

<!-- generated on 2025-07-12 21:49:10 by Eclipse SUMO duarouter Version 1.23.1
<duarouterConfiguration xmlns:xsi="http://www.w3.org/2001/XMLSchema-instance" xsi:noNamespaceSchemaLocation="http://sumo.dlr.de/xsd/duarouterConfiguration.xsd">

    <input>
        <net-file value="osm.net.xml.gz"/>
        <route-files value="osm.bicycle.trips.xml"/>
    </input>

    <output>
        <output-file value="osm.bicycle.rou.xml"/>
        <alternatives-output value="NUL"/>
    </output>

    <processing>
        <remove-loops value="true"/>
    </processing>

    <time>
        <begin value="0.0"/>
        <end value="3600.0"/>
    </time>

    <report>
        <no-warnings value="true"/>
        <ignore-errors value="true"/>
        <no-step-log value="true"/>
    </report>

</duarouterConfiguration>
-->

<routes xmlns:xsi="http://www.w3.org/2001/XMLSchema-instance" xsi:noNamespaceSchemaLocation="http://sumo.dlr.de/xsd/routes_file.xsd">
    <vType id="bike_bicycle" vClass="bicycle"/>
    <vehicle id="bike0" type="bike_bicycle" depart="0.00" departLane="best" departSpeed="max">
        <route edges="E16 E5 E6 E13"/>
    </vehicle>
    <vehicle id="bike1" type="bike_bicycle" depart="6.73" departLane="best">
        <route edges="E7 E4 E10"/>
    </vehicle>
    <vehicle id="bike2" type="bike_bicycle" depart="13.45" departLane="best" departSpeed="max">
        <route edges="E12 E7 E2"/>
    </vehicle>
    <vehicle id="bike3" type="bike_bicycle" depart="20.18" departLane="best">
        <route edges="E0 E6 E13"/>
    </vehicle>
    <vehicle id="bike4" type="bike_bicycle" depart="26.91" departLane="best" departSpeed="max">
        <route edges="E23 E20"/>
    </vehicle>
    <vehicle id="bike5" type="bike_bicycle" depart="33.63" departLane="best" departSpeed="max">
        <route edges="E12 E7 E2 E20"/>
    </vehicle>
    <vehicle id="bike6" type="bike_bicycle" depart="40.36" departLane="best">
        <route edges="E5 E2 E22"/>
    </vehicle>
    <vehicle id="bike7" type="bike_bicycle" depart="47.08" departLane="best" departSpeed="max">
        <route edges="E18 E0 E4 E10"/>
    </vehicle>
    <vehicle id="bike8" type="bike_bicycle" depart="53.81" departLane="best" departSpeed="max">
        <route edges="E9 E15"/>
    </vehicle>
    <vehicle id="bike9" type="bike_bicycle" depart="60.54" departLane="best" departSpeed="max">
        <route edges="E18 E0 E2 E20"/>
    </vehicle>
    <vehicle id="bike10" type="bike_bicycle" depart="67.26" departLane="best">
        <route edges="E5 E2 E20"/>
    </vehicle>
    <vehicle id="bike11" type="bike_bicycle" depart="73.99" departLane="best" departSpeed="max">
        <route edges="E23 E3 E1"/>
    </vehicle>
    <vehicle id="bike12" type="bike_bicycle" depart="80.72" departLane="best" departSpeed="max">
        <route edges="E12 E14"/>
    </vehicle>
    <vehicle id="bike13" type="bike_bicycle" depart="87.44" departLane="best" departSpeed="max">
        <route edges="E11 E5 E6 E14"/>
    </vehicle>
    <vehicle id="bike14" type="bike_bicycle" depart="94.17" departLane="best" departSpeed="max">
        <route edges="E23 E3 E1 E15"/>
    </vehicle>
    <vehicle id="bike15" type="bike_bicycle" depart="100.90" departLane="best" departSpeed="max">
        <route edges="E18 E0 E6 E13"/>
    </vehicle>
    <vehicle id="bike16" type="bike_bicycle" depart="107.62" departLane="best" departSpeed="max">
        <route edges="E16 E5 E1 E8"/>
    </vehicle>
    <vehicle id="bike17" type="bike_bicycle" depart="114.35" departLane="best" departSpeed="max">
        <route edges="E23 E20"/>
    </vehicle>
    <vehicle id="bike18" type="bike_bicycle" depart="121.08" departLane="best" departSpeed="max">
        <route edges="E11 E5 E1 E15"/>
    </vehicle>
    <vehicle id="bike19" type="bike_bicycle" depart="127.80" departLane="best" departSpeed="max">
        <route edges="E9 E0 E2 E22"/>
    </vehicle>
    <vehicle id="bike20" type="bike_bicycle" depart="134.53" departLane="best" departSpeed="max">
        <route edges="E21 E22"/>
    </vehicle>
    <vehicle id="bike21" type="bike_bicycle" depart="141.25" departLane="best" departSpeed="max">
        <route edges="E16 E5 E6 E14"/>
    </vehicle>
    <vehicle id="bike22" type="bike_bicycle" depart="147.98" departLane="best" departSpeed="max">
        <route edges="E12 E7 E1 E8"/>
    </vehicle>
    <vehicle id="bike23" type="bike_bicycle" depart="154.71" departLane="best" departSpeed="max">
        <route edges="E23 E3 E1 E15"/>
    </vehicle>
    <vehicle id="bike24" type="bike_bicycle" depart="161.43" departLane="best">
        <route edges="E7 E4 E17"/>
    </vehicle>
    <vehicle id="bike25" type="bike_bicycle" depart="168.16" departLane="best" departSpeed="max">
        <route edges="E16 E5 E6 E13"/>
    </vehicle>
    <vehicle id="bike26" type="bike_bicycle" depart="174.89" departLane="best" departSpeed="max">
        <route edges="E21 E3 E6 E14"/>
    </vehicle>
    <vehicle id="bike27" type="bike_bicycle" depart="181.61" departLane="best" departSpeed="max">
        <route edges="E18 E0 E6 E13"/>
    </vehicle>
    <vehicle id="bike28" type="bike_bicycle" depart="188.34" departLane="best" departSpeed="max">
        <route edges="E9 E0 E2"/>
    </vehicle>
    <vehicle id="bike29" type="bike_bicycle" depart="195.07" departLane="best" departSpeed="max">
        <route edges="E11 E5 E1"/>
    </vehicle>
    <vehicle id="bike30" type="bike_bicycle" depart="201.79" departLane="best" departSpeed="max">
        <route edges="E11 E5 E2 E22"/>
    </vehicle>
    <vehicle id="bike31" type="bike_bicycle" depart="208.52" departLane="best">
        <route edges="E1 E15"/>
    </vehicle>
    <vehicle id="bike32" type="bike_bicycle" depart="215.24" departLane="best" departSpeed="max">
        <route edges="E9 E0 E2"/>
    </vehicle>
    <vehicle id="bike33" type="bike_bicycle" depart="221.97" departLane="best" departSpeed="max">
        <route edges="E9 E0 E6"/>
    </vehicle>
    <vehicle id="bike34" type="bike_bicycle" depart="228.70" departLane="best" departSpeed="max">
        <route edges="E16 E5 E2 E22"/>
    </vehicle>
    <vehicle id="bike35" type="bike_bicycle" depart="235.42" departLane="best" departSpeed="max">
        <route edges="E11 E17"/>
    </vehicle>
    <vehicle id="bike36" type="bike_bicycle" depart="242.15" departLane="best" departSpeed="max">
        <route edges="E19 E7 E1 E8"/>
    </vehicle>
    <vehicle id="bike37" type="bike_bicycle" depart="248.88" departLane="best" departSpeed="max">
        <route edges="E16 E5 E2 E22"/>
    </vehicle>
    <vehicle id="bike38" type="bike_bicycle" depart="255.60" departLane="best" departSpeed="max">
        <route edges="E21 E3 E4 E10"/>
    </vehicle>
    <vehicle id="bike39" type="bike_bicycle" depart="262.33" departLane="best">
        <route edges="E0 E6 E14"/>
    </vehicle>
    <vehicle id="bike40" type="bike_bicycle" depart="269.06" departLane="best" departSpeed="max">
        <route edges="E16 E5 E1"/>
    </vehicle>
    <vehicle id="bike41" type="bike_bicycle" depart="275.78" departLane="best">
        <route edges="E7 E1 E8"/>
    </vehicle>
    <vehicle id="bike42" type="bike_bicycle" depart="282.51" departLane="best" departSpeed="max">
        <route edges="E11 E17"/>
    </vehicle>
    <vehicle id="bike43" type="bike_bicycle" depart="289.24" departLane="best">
        <route edges="E4 E10"/>
    </vehicle>
    <vehicle id="bike44" type="bike_bicycle" depart="295.96" departLane="best" departSpeed="max">
        <route edges="E19 E7 E2 E20"/>
    </vehicle>
    <vehicle id="bike45" type="bike_bicycle" depart="302.69" departLane="best" departSpeed="max">
        <route edges="E16 E5 E6"/>
    </vehicle>
    <vehicle id="bike46" type="bike_bicycle" depart="309.41" departLane="best" departSpeed="max">
        <route edges="E19 E13"/>
    </vehicle>
    <vehicle id="bike47" type="bike_bicycle" depart="316.14" departLane="best" departSpeed="max">
        <route edges="E12 E14"/>
    </vehicle>
    <vehicle id="bike48" type="bike_bicycle" depart="322.87" departLane="best" departSpeed="max">
        <route edges="E9 E0 E2 E22"/>
    </vehicle>
    <vehicle id="bike49" type="bike_bicycle" depart="329.59" departLane="best" departSpeed="max">
        <route edges="E19 E7 E2"/>
    </vehicle>
    <vehicle id="bike50" type="bike_bicycle" depart="336.32" departLane="best" departSpeed="max">
        <route edges="E11 E5 E6 E13"/>
    </vehicle>
    <vehicle id="bike51" type="bike_bicycle" depart="343.05" departLane="best" departSpeed="max">
        <route edges="E18 E0 E2 E20"/>
    </vehicle>
    <vehicle id="bike52" type="bike_bicycle" depart="349.77" departLane="best" departSpeed="max">
        <route edges="E12 E7"/>
    </vehicle>
    <vehicle id="bike53" type="bike_bicycle" depart="356.50" departLane="best" departSpeed="max">
        <route edges="E12 E7 E2 E22"/>
    </vehicle>
    <vehicle id="bike54" type="bike_bicycle" depart="363.23" departLane="best" departSpeed="max">
        <route edges="E12 E7 E4 E10"/>
    </vehicle>
    <vehicle id="bike55" type="bike_bicycle" depart="369.95" departLane="best" departSpeed="max">
        <route edges="E9 E0 E2 E20"/>
    </vehicle>
    <vehicle id="bike56" type="bike_bicycle" depart="376.68" departLane="best" departSpeed="max">
        <route edges="E19 E7 E4"/>
    </vehicle>
    <vehicle id="bike57" type="bike_bicycle" depart="383.41" departLane="best">
        <route edges="E5 E6 E13"/>
    </vehicle>
    <vehicle id="bike58" type="bike_bicycle" depart="390.13" departLane="best" departSpeed="max">
        <route edges="E11 E17"/>
    </vehicle>
    <vehicle id="bike59" type="bike_bicycle" depart="396.86" departLane="best" departSpeed="max">
        <route edges="E19 E7 E4 E17"/>
    </vehicle>
    <vehicle id="bike60" type="bike_bicycle" depart="403.58" departLane="best" departSpeed="max">
        <route edges="E9 E0 E4 E10"/>
    </vehicle>
    <vehicle id="bike61" type="bike_bicycle" depart="410.31" departLane="best" departSpeed="max">
        <route edges="E18 E15"/>
    </vehicle>
    <vehicle id="bike62" type="bike_bicycle" depart="417.04" departLane="best">
        <route edges="E6 E13"/>
    </vehicle>
    <vehicle id="bike63" type="bike_bicycle" depart="423.76" departLane="best" departSpeed="max">
        <route edges="E12 E7 E4 E17"/>
    </vehicle>
    <vehicle id="bike64" type="bike_bicycle" depart="430.49" departLane="best" departSpeed="max">
        <route edges="E19 E14"/>
    </vehicle>
    <vehicle id="bike65" type="bike_bicycle" depart="437.22" departLane="best" departSpeed="max">
        <route edges="E12 E7 E1 E8"/>
    </vehicle>
    <vehicle id="bike66" type="bike_bicycle" depart="443.94" departLane="best" departSpeed="max">
        <route edges="E21 E3 E1"/>
    </vehicle>
    <vehicle id="bike67" type="bike_bicycle" depart="450.67" departLane="best" departSpeed="max">
        <route edges="E9 E0 E6"/>
    </vehicle>
    <vehicle id="bike68" type="bike_bicycle" depart="457.40" departLane="best" departSpeed="max">
        <route edges="E19 E13"/>
    </vehicle>
    <vehicle id="bike69" type="bike_bicycle" depart="464.12" departLane="best" departSpeed="max">
        <route edges="E18 E8"/>
    </vehicle>
    <vehicle id="bike70" type="bike_bicycle" depart="470.85" departLane="best" departSpeed="max">
        <route edges="E19 E7 E4 E17"/>
    </vehicle>
    <vehicle id="bike71" type="bike_bicycle" depart="477.57" departLane="best" departSpeed="max">
        <route edges="E21 E3"/>
    </vehicle>
    <vehicle id="bike72" type="bike_bicycle" depart="484.30" departLane="best" departSpeed="max">
        <route edges="E11 E5 E6 E14"/>
    </vehicle>
    <vehicle id="bike73" type="bike_bicycle" depart="491.03" departLane="best" departSpeed="max">
        <route edges="E9 E0 E2 E20"/>
    </vehicle>
    <vehicle id="bike74" type="bike_bicycle" depart="497.75" departLane="best" departSpeed="max">
        <route edges="E21 E3"/>
    </vehicle>
    <vehicle id="bike75" type="bike_bicycle" depart="504.48" departLane="best" departSpeed="max">
        <route edges="E11 E5 E1 E8"/>
    </vehicle>
    <vehicle id="bike76" type="bike_bicycle" depart="511.21" departLane="best" departSpeed="max">
        <route edges="E21 E22"/>
    </vehicle>
    <vehicle id="bike77" type="bike_bicycle" depart="517.93" departLane="best" departSpeed="max">
        <route edges="E12 E7 E4 E10"/>
    </vehicle>
    <vehicle id="bike78" type="bike_bicycle" depart="524.66" departLane="best" departSpeed="max">
        <route edges="E19 E7 E2 E20"/>
    </vehicle>
    <vehicle id="bike79" type="bike_bicycle" depart="531.39" departLane="best" departSpeed="max">
        <route edges="E12 E7 E1 E15"/>
    </vehicle>
    <vehicle id="bike80" type="bike_bicycle" depart="538.11" departLane="best" departSpeed="max">
        <route edges="E23 E3 E6 E14"/>
    </vehicle>
    <vehicle id="bike81" type="bike_bicycle" depart="544.84" departLane="best" departSpeed="max">
        <route edges="E16 E5 E1 E8"/>
    </vehicle>
    <vehicle id="bike82" type="bike_bicycle" depart="551.57" departLane="best">
        <route edges="E7"/>
    </vehicle>
    <vehicle id="bike83" type="bike_bicycle" depart="558.29" departLane="best" departSpeed="max">
        <route edges="E18 E0 E4 E10"/>
    </vehicle>
    <vehicle id="bike84" type="bike_bicycle" depart="565.02" departLane="best" departSpeed="max">
        <route edges="E21 E3 E1 E8"/>
    </vehicle>
    <vehicle id="bike85" type="bike_bicycle" depart="571.74" departLane="best">
        <route edges="E5 E6 E14"/>
    </vehicle>
    <vehicle id="bike86" type="bike_bicycle" depart="578.47" departLane="best" departSpeed="max">
        <route edges="E23 E3 E1 E8"/>
    </vehicle>
    <vehicle id="bike87" type="bike_bicycle" depart="585.20" departLane="best" departSpeed="max">
        <route edges="E11 E5 E2 E20"/>
    </vehicle>
    <vehicle id="bike88" type="bike_bicycle" depart="591.92" departLane="best" departSpeed="max">
        <route edges="E16 E5 E2 E20"/>
    </vehicle>
    <vehicle id="bike89" type="bike_bicycle" depart="598.65" departLane="best">
        <route edges="E3 E6 E13"/>
    </vehicle>
    <vehicle id="bike90" type="bike_bicycle" depart="605.38" departLane="best" departSpeed="max">
        <route edges="E23 E3 E6 E14"/>
    </vehicle>
    <vehicle id="bike91" type="bike_bicycle" depart="612.10" departLane="best" departSpeed="max">
        <route edges="E19 E7"/>
    </vehicle>
    <vehicle id="bike92" type="bike_bicycle" depart="618.83" departLane="best" departSpeed="max">
        <route edges="E19 E14"/>
    </vehicle>
    <vehicle id="bike93" type="bike_bicycle" depart="625.56" departLane="best">
        <route edges="E0 E4"/>
    </vehicle>
    <vehicle id="bike94" type="bike_bicycle" depart="632.28" departLane="best" departSpeed="max">
        <route edges="E23 E3 E6 E14"/>
    </vehicle>
    <vehicle id="bike95" type="bike_bicycle" depart="639.01" departLane="best">
        <route edges="E7 E2 E20"/>
    </vehicle>
    <vehicle id="bike96" type="bike_bicycle" depart="645.73" departLane="best">
        <route edges="E5 E6"/>
    </vehicle>
    <vehicle id="bike97" type="bike_bicycle" depart="652.46" departLane="best" departSpeed="max">
        <route edges="E12 E7 E4 E10"/>
    </vehicle>
    <vehicle id="bike98" type="bike_bicycle" depart="659.19" departLane="best" departSpeed="max">
        <route edges="E18 E0 E2 E20"/>
    </vehicle>
    <vehicle id="bike99" type="bike_bicycle" depart="665.91" departLane="best" departSpeed="max">
        <route edges="E11 E5 E1 E8"/>
    </vehicle>
    <vehicle id="bike100" type="bike_bicycle" depart="672.64" departLane="best" departSpeed="max">
        <route edges="E16 E5 E1 E8"/>
    </vehicle>
    <vehicle id="bike101" type="bike_bicycle" depart="679.37" departLane="best">
        <route edges="E5 E6"/>
    </vehicle>
    <vehicle id="bike102" type="bike_bicycle" depart="686.09" departLane="best">
        <route edges="E5 E6 E14"/>
    </vehicle>
    <vehicle id="bike103" type="bike_bicycle" depart="692.82" departLane="best">
        <route edges="E4 E10"/>
    </vehicle>
    <vehicle id="bike104" type="bike_bicycle" depart="699.55" departLane="best">
        <route edges="E6"/>
    </vehicle>
    <vehicle id="bike105" type="bike_bicycle" depart="706.27" departLane="best" departSpeed="max">
        <route edges="E19 E14"/>
    </vehicle>
    <vehicle id="bike106" type="bike_bicycle" depart="713.00" departLane="best">
        <route edges="E5 E6 E13"/>
    </vehicle>
    <vehicle id="bike107" type="bike_bicycle" depart="719.73" departLane="best">
        <route edges="E0 E6 E13"/>
    </vehicle>
    <vehicle id="bike108" type="bike_bicycle" depart="726.45" departLane="best" departSpeed="max">
        <route edges="E16 E5 E6"/>
    </vehicle>
    <vehicle id="bike109" type="bike_bicycle" depart="733.18" departLane="best" departSpeed="max">
        <route edges="E9 E0 E6 E14"/>
    </vehicle>
    <vehicle id="bike110" type="bike_bicycle" depart="739.90" departLane="best" departSpeed="max">
        <route edges="E23 E3 E1 E15"/>
    </vehicle>
    <vehicle id="bike111" type="bike_bicycle" depart="746.63" departLane="best" departSpeed="max">
        <route edges="E9 E0 E2"/>
    </vehicle>
    <vehicle id="bike112" type="bike_bicycle" depart="753.36" departLane="best" departSpeed="max">
        <route edges="E9 E0 E4 E10"/>
    </vehicle>
    <vehicle id="bike113" type="bike_bicycle" depart="760.08" departLane="best" departSpeed="max">
        <route edges="E9 E0 E6 E13"/>
    </vehicle>
    <vehicle id="bike114" type="bike_bicycle" depart="766.81" departLane="best" departSpeed="max">
        <route edges="E9 E0 E6 E14"/>
    </vehicle>
    <vehicle id="bike115" type="bike_bicycle" depart="773.54" departLane="best" departSpeed="max">
        <route edges="E11 E17"/>
    </vehicle>
    <vehicle id="bike116" type="bike_bicycle" depart="780.26" departLane="best">
        <route edges="E3 E6 E14"/>
    </vehicle>
    <vehicle id="bike117" type="bike_bicycle" depart="786.99" departLane="best" departSpeed="max">
        <route edges="E18 E0 E2 E20"/>
    </vehicle>
    <vehicle id="bike118" type="bike_bicycle" depart="793.72" departLane="best" departSpeed="max">
        <route edges="E23 E3 E6 E14"/>
    </vehicle>
    <vehicle id="bike119" type="bike_bicycle" depart="800.44" departLane="best" departSpeed="max">
        <route edges="E16 E5 E6"/>
    </vehicle>
    <vehicle id="bike120" type="bike_bicycle" depart="807.17" departLane="best">
        <route edges="E3 E6 E14"/>
    </vehicle>
    <vehicle id="bike121" type="bike_bicycle" depart="813.89" departLane="best" departSpeed="max">
        <route edges="E16 E5 E1 E15"/>
    </vehicle>
    <vehicle id="bike122" type="bike_bicycle" depart="820.62" departLane="best" departSpeed="max">
        <route edges="E18 E0 E6 E14"/>
    </vehicle>
    <vehicle id="bike123" type="bike_bicycle" depart="827.35" departLane="best" departSpeed="max">
        <route edges="E11 E17"/>
    </vehicle>
    <vehicle id="bike124" type="bike_bicycle" depart="834.07" departLane="best" departSpeed="max">
        <route edges="E9 E0 E2 E22"/>
    </vehicle>
    <vehicle id="bike125" type="bike_bicycle" depart="840.80" departLane="best">
        <route edges="E7 E2 E20"/>
    </vehicle>
    <vehicle id="bike126" type="bike_bicycle" depart="847.53" departLane="best" departSpeed="max">
        <route edges="E16 E5 E2 E20"/>
    </vehicle>
    <vehicle id="bike127" type="bike_bicycle" depart="854.25" departLane="best">
        <route edges="E0 E6 E14"/>
    </vehicle>
    <vehicle id="bike128" type="bike_bicycle" depart="860.98" departLane="best" departSpeed="max">
        <route edges="E19 E7 E2 E20"/>
    </vehicle>
    <vehicle id="bike129" type="bike_bicycle" depart="867.71" departLane="best" departSpeed="max">
        <route edges="E23 E3 E4 E17"/>
    </vehicle>
    <vehicle id="bike130" type="bike_bicycle" depart="874.43" departLane="best" departSpeed="max">
        <route edges="E19 E13"/>
    </vehicle>
    <vehicle id="bike131" type="bike_bicycle" depart="881.16" departLane="best" departSpeed="max">
        <route edges="E19 E7"/>
    </vehicle>
    <vehicle id="bike132" type="bike_bicycle" depart="887.89" departLane="best">
        <route edges="E5 E6 E13"/>
    </vehicle>
    <vehicle id="bike133" type="bike_bicycle" depart="894.61" departLane="best" departSpeed="max">
        <route edges="E11 E5 E2"/>
    </vehicle>
    <vehicle id="bike134" type="bike_bicycle" depart="901.34" departLane="best" departSpeed="max">
        <route edges="E23 E3 E1 E15"/>
    </vehicle>
    <vehicle id="bike135" type="bike_bicycle" depart="908.06" departLane="best" departSpeed="max">
        <route edges="E23 E3 E6 E13"/>
    </vehicle>
    <vehicle id="bike136" type="bike_bicycle" depart="914.79" departLane="best" departSpeed="max">
        <route edges="E12 E7 E4 E17"/>
    </vehicle>
    <vehicle id="bike137" type="bike_bicycle" depart="921.52" departLane="best" departSpeed="max">
        <route edges="E18 E0 E2 E22"/>
    </vehicle>
    <vehicle id="bike138" type="bike_bicycle" depart="928.24" departLane="best" departSpeed="max">
        <route edges="E12 E7 E2 E22"/>
    </vehicle>
    <vehicle id="bike139" type="bike_bicycle" depart="934.97" departLane="best" departSpeed="max">
        <route edges="E19 E13"/>
    </vehicle>
    <vehicle id="bike140" type="bike_bicycle" depart="941.70" departLane="best">
        <route edges="E4"/>
    </vehicle>
    <vehicle id="bike141" type="bike_bicycle" depart="948.42" departLane="best" departSpeed="max">
        <route edges="E11 E17"/>
    </vehicle>
    <vehicle id="bike142" type="bike_bicycle" depart="955.15" departLane="best" departSpeed="max">
        <route edges="E12 E7 E1 E8"/>
    </vehicle>
    <vehicle id="bike143" type="bike_bicycle" depart="961.88" departLane="best" departSpeed="max">
        <route edges="E23 E3 E1 E8"/>
    </vehicle>
    <vehicle id="bike144" type="bike_bicycle" depart="968.60" departLane="best" departSpeed="max">
        <route edges="E21 E3 E1 E8"/>
    </vehicle>
    <vehicle id="bike145" type="bike_bicycle" depart="975.33" departLane="best">
        <route edges="E7 E2 E20"/>
    </vehicle>
    <vehicle id="bike146" type="bike_bicycle" depart="982.06" departLane="best">
        <route edges="E5 E2 E20"/>
    </vehicle>
    <vehicle id="bike147" type="bike_bicycle" depart="988.78" departLane="best" departSpeed="max">
        <route edges="E19 E14"/>
    </vehicle>
    <vehicle id="bike148" type="bike_bicycle" depart="995.51" departLane="best" departSpeed="max">
        <route edges="E12 E7 E2 E22"/>
    </vehicle>
    <vehicle id="bike149" type="bike_bicycle" depart="1002.23" departLane="best" departSpeed="max">
        <route edges="E23 E3 E6 E14"/>
    </vehicle>
    <vehicle id="bike150" type="bike_bicycle" depart="1008.96" departLane="best" departSpeed="max">
        <route edges="E16 E5 E6 E14"/>
    </vehicle>
    <vehicle id="bike151" type="bike_bicycle" depart="1015.69" departLane="best" departSpeed="max">
        <route edges="E12 E7 E2 E22"/>
    </vehicle>
    <vehicle id="bike152" type="bike_bicycle" depart="1022.41" departLane="best" departSpeed="max">
        <route edges="E23 E3 E1"/>
    </vehicle>
    <vehicle id="bike153" type="bike_bicycle" depart="1029.14" departLane="best" departSpeed="max">
        <route edges="E18 E0 E2 E20"/>
    </vehicle>
    <vehicle id="bike154" type="bike_bicycle" depart="1035.87" departLane="best" departSpeed="max">
        <route edges="E18 E0 E6 E13"/>
    </vehicle>
    <vehicle id="bike155" type="bike_bicycle" depart="1042.59" departLane="best" departSpeed="max">
        <route edges="E19 E7"/>
    </vehicle>
    <vehicle id="bike156" type="bike_bicycle" depart="1049.32" departLane="best" departSpeed="max">
        <route edges="E21 E22"/>
    </vehicle>
    <vehicle id="bike157" type="bike_bicycle" depart="1056.05" departLane="best" departSpeed="max">
        <route edges="E18 E0"/>
    </vehicle>
    <vehicle id="bike158" type="bike_bicycle" depart="1062.77" departLane="best" departSpeed="max">
        <route edges="E18 E0 E4"/>
    </vehicle>
    <vehicle id="bike159" type="bike_bicycle" depart="1069.50" departLane="best" departSpeed="max">
        <route edges="E18 E0 E2 E22"/>
    </vehicle>
    <vehicle id="bike160" type="bike_bicycle" depart="1076.22" departLane="best" departSpeed="max">
        <route edges="E18 E0 E4 E10"/>
    </vehicle>
    <vehicle id="bike161" type="bike_bicycle" depart="1082.95" departLane="best" departSpeed="max">
        <route edges="E19 E7 E4 E10"/>
    </vehicle>
    <vehicle id="bike162" type="bike_bicycle" depart="1089.68" departLane="best" departSpeed="max">
        <route edges="E18 E0 E2 E20"/>
    </vehicle>
    <vehicle id="bike163" type="bike_bicycle" depart="1096.40" departLane="best">
        <route edges="E0 E2 E22"/>
    </vehicle>
    <vehicle id="bike164" type="bike_bicycle" depart="1103.13" departLane="best" departSpeed="max">
        <route edges="E11 E17"/>
    </vehicle>
    <vehicle id="bike165" type="bike_bicycle" depart="1109.86" departLane="best">
        <route edges="E1 E15"/>
    </vehicle>
    <vehicle id="bike166" type="bike_bicycle" depart="1116.58" departLane="best" departSpeed="max">
        <route edges="E12 E14"/>
    </vehicle>
    <vehicle id="bike167" type="bike_bicycle" depart="1123.31" departLane="best" departSpeed="max">
        <route edges="E16 E5 E1"/>
    </vehicle>
    <vehicle id="bike168" type="bike_bicycle" depart="1130.04" departLane="best">
        <route edges="E0 E2"/>
    </vehicle>
    <vehicle id="bike169" type="bike_bicycle" depart="1136.76" departLane="best" departSpeed="max">
        <route edges="E9 E15"/>
    </vehicle>
    <vehicle id="bike170" type="bike_bicycle" depart="1143.49" departLane="best" departSpeed="max">
        <route edges="E23 E3 E4"/>
    </vehicle>
    <vehicle id="bike171" type="bike_bicycle" depart="1150.22" departLane="best" departSpeed="max">
        <route edges="E23 E3 E4"/>
    </vehicle>
    <vehicle id="bike172" type="bike_bicycle" depart="1156.94" departLane="best" departSpeed="max">
        <route edges="E9 E0 E6 E13"/>
    </vehicle>
    <vehicle id="bike173" type="bike_bicycle" depart="1163.67" departLane="best">
        <route edges="E0 E4 E10"/>
    </vehicle>
    <vehicle id="bike174" type="bike_bicycle" depart="1170.39" departLane="best" departSpeed="max">
        <route edges="E11 E5 E2 E22"/>
    </vehicle>
    <vehicle id="bike175" type="bike_bicycle" depart="1177.12" departLane="best" departSpeed="max">
        <route edges="E21 E3 E6 E13"/>
    </vehicle>
    <vehicle id="bike176" type="bike_bicycle" depart="1183.85" departLane="best" departSpeed="max">
        <route edges="E23 E3 E4"/>
    </vehicle>
    <vehicle id="bike177" type="bike_bicycle" depart="1190.57" departLane="best" departSpeed="max">
        <route edges="E12 E7 E2 E20"/>
    </vehicle>
    <vehicle id="bike178" type="bike_bicycle" depart="1197.30" departLane="best">
        <route edges="E3 E4 E10"/>
    </vehicle>
    <vehicle id="bike179" type="bike_bicycle" depart="1204.03" departLane="best">
        <route edges="E5 E1 E8"/>
    </vehicle>
    <vehicle id="bike180" type="bike_bicycle" depart="1210.75" departLane="best" departSpeed="max">
        <route edges="E16 E5 E2 E22"/>
    </vehicle>
    <vehicle id="bike181" type="bike_bicycle" depart="1217.48" departLane="best" departSpeed="max">
        <route edges="E9 E15"/>
    </vehicle>
    <vehicle id="bike182" type="bike_bicycle" depart="1224.21" departLane="best">
        <route edges="E3 E1"/>
    </vehicle>
    <vehicle id="bike183" type="bike_bicycle" depart="1230.93" departLane="best" departSpeed="max">
        <route edges="E23 E22"/>
    </vehicle>
    <vehicle id="bike184" type="bike_bicycle" depart="1237.66" departLane="best" departSpeed="max">
        <route edges="E11 E5 E1 E8"/>
    </vehicle>
    <vehicle id="bike185" type="bike_bicycle" depart="1244.38" departLane="best" departSpeed="max">
        <route edges="E19 E7 E1 E15"/>
    </vehicle>
    <vehicle id="bike186" type="bike_bicycle" depart="1251.11" departLane="best" departSpeed="max">
        <route edges="E11 E5 E1 E8"/>
    </vehicle>
    <vehicle id="bike187" type="bike_bicycle" depart="1257.84" departLane="best" departSpeed="max">
        <route edges="E23 E3 E4 E17"/>
    </vehicle>
    <vehicle id="bike188" type="bike_bicycle" depart="1264.56" departLane="best">
        <route edges="E3 E1 E8"/>
    </vehicle>
    <vehicle id="bike189" type="bike_bicycle" depart="1271.29" departLane="best" departSpeed="max">
        <route edges="E16 E5"/>
    </vehicle>
    <vehicle id="bike190" type="bike_bicycle" depart="1278.02" departLane="best" departSpeed="max">
        <route edges="E16 E5 E6"/>
    </vehicle>
    <vehicle id="bike191" type="bike_bicycle" depart="1284.74" departLane="best" departSpeed="max">
        <route edges="E19 E7 E2 E20"/>
    </vehicle>
    <vehicle id="bike192" type="bike_bicycle" depart="1291.47" departLane="best" departSpeed="max">
        <route edges="E18 E0"/>