<?xml version="1.0" encoding="UTF-8"?>

<!-- generated on 2025-07-01 15:12:13.353900 by randomTrips.py v1_23_1+0000-676720d13f6
<configuration>
    <net-file value="osm.net.xml.gz"/>
    <output-trip-file value="osm.motorcycle.trips.xml"/>
    <route-file value="osm.motorcycle.rou.xml"/>
    <prefix value="motorcycle"/>
    <trip-attributes value="departLane=&quot;best&quot;"/>
    <fringe-start-attributes value="departSpeed=&quot;max&quot;"/>
    <vehicle-class value="motorcycle"/>
    <fringe-factor value="2"/>
    <edge-permission value="motorcycle"/>
    <via-edge-types value="highway.motorway,highway.motorway_link,highway.trunk_link,highway.primary_link,highway.secondary_link,highway.tertiary_link"/>
    <max-distance value="1200.0"/>
    <remove-loops value="True"/>
    <validate value="True"/>
    <insertion-density value="40.0"/>
</configuration>
-->

<!-- generated on 2025-07-01 15:12:13 by Eclipse SUMO duarouter Version 1.23.1
<duarouterConfiguration xmlns:xsi="http://www.w3.org/2001/XMLSchema-instance" xsi:noNamespaceSchemaLocation="http://sumo.dlr.de/xsd/duarouterConfiguration.xsd">

    <input>
        <net-file value="osm.net.xml.gz"/>
        <route-files value="osm.motorcycle.trips.xml"/>
    </input>

    <output>
        <output-file value="osm.motorcycle.rou.xml"/>
        <alternatives-output value="NUL"/>
    </output>

    <processing>
        <remove-loops value="true"/>
    </processing>

    <time>
        <begin value="0.0"/>
        <end value="3600.0"/>
    </time>

    <report>
        <no-warnings value="true"/>
        <ignore-errors value="true"/>
        <no-step-log value="true"/>
    </report>

</duarouterConfiguration>
-->

<routes xmlns:xsi="http://www.w3.org/2001/XMLSchema-instance" xsi:noNamespaceSchemaLocation="http://sumo.dlr.de/xsd/routes_file.xsd">
    <vType id="motorcycle_motorcycle" vClass="motorcycle"/>
    <vehicle id="motorcycle0" type="motorcycle_motorcycle" depart="0.00" departLane="best" departSpeed="max">
        <route edges="E16 E5 E6 E13"/>
    </vehicle>
    <vehicle id="motorcycle1" type="motorcycle_motorcycle" depart="9.98" departLane="best">
        <route edges="E7 E4 E10"/>
    </vehicle>
    <vehicle id="motorcycle2" type="motorcycle_motorcycle" depart="19.97" departLane="best" departSpeed="max">
        <route edges="E12 E7 E2"/>
    </vehicle>
    <vehicle id="motorcycle3" type="motorcycle_motorcycle" depart="29.95" departLane="best">
        <route edges="E0 E6 E13"/>
    </vehicle>
    <vehicle id="motorcycle4" type="motorcycle_motorcycle" depart="39.94" departLane="best" departSpeed="max">
        <route edges="E23 E20"/>
    </vehicle>
    <vehicle id="motorcycle5" type="motorcycle_motorcycle" depart="49.92" departLane="best" departSpeed="max">
        <route edges="E12 E7 E2 E20"/>
    </vehicle>
    <vehicle id="motorcycle6" type="motorcycle_motorcycle" depart="59.91" departLane="best">
        <route edges="E5 E2 E22"/>
    </vehicle>
    <vehicle id="motorcycle7" type="motorcycle_motorcycle" depart="69.89" departLane="best" departSpeed="max">
        <route edges="E18 E0 E4 E10"/>
    </vehicle>
    <vehicle id="motorcycle8" type="motorcycle_motorcycle" depart="79.88" departLane="best" departSpeed="max">
        <route edges="E9 E15"/>
    </vehicle>
    <vehicle id="motorcycle9" type="motorcycle_motorcycle" depart="89.86" departLane="best" departSpeed="max">
        <route edges="E18 E0 E2 E20"/>
    </vehicle>
    <vehicle id="motorcycle10" type="motorcycle_motorcycle" depart="99.85" departLane="best">
        <route edges="E5 E2 E20"/>
    </vehicle>
    <vehicle id="motorcycle11" type="motorcycle_motorcycle" depart="109.83" departLane="best" departSpeed="max">
        <route edges="E23 E3 E1"/>
    </vehicle>
    <vehicle id="motorcycle12" type="motorcycle_motorcycle" depart="119.82" departLane="best" departSpeed="max">
        <route edges="E12 E14"/>
    </vehicle>
    <vehicle id="motorcycle13" type="motorcycle_motorcycle" depart="129.80" departLane="best" departSpeed="max">
        <route edges="E11 E5 E6 E14"/>
    </vehicle>
    <vehicle id="motorcycle14" type="motorcycle_motorcycle" depart="139.79" departLane="best" departSpeed="max">
        <route edges="E23 E3 E1 E15"/>
    </vehicle>
    <vehicle id="motorcycle15" type="motorcycle_motorcycle" depart="149.77" departLane="best" departSpeed="max">
        <route edges="E18 E0 E6 E13"/>
    </vehicle>
    <vehicle id="motorcycle16" type="motorcycle_motorcycle" depart="159.76" departLane="best" departSpeed="max">
        <route edges="E16 E5 E1 E8"/>
    </vehicle>
    <vehicle id="motorcycle17" type="motorcycle_motorcycle" depart="169.74" departLane="best" departSpeed="max">
        <route edges="E23 E20"/>
    </vehicle>
    <vehicle id="motorcycle18" type="motorcycle_motorcycle" depart="179.73" departLane="best" departSpeed="max">
        <route edges="E11 E5 E1 E15"/>
    </vehicle>
    <vehicle id="motorcycle19" type="motorcycle_motorcycle" depart="189.71" departLane="best" departSpeed="max">
        <route edges="E9 E0 E2 E22"/>
    </vehicle>
    <vehicle id="motorcycle20" type="motorcycle_motorcycle" depart="199.70" departLane="best" departSpeed="max">
        <route edges="E21 E22"/>
    </vehicle>
    <vehicle id="motorcycle21" type="motorcycle_motorcycle" depart="209.68" departLane="best" departSpeed="max">
        <route edges="E16 E5 E6 E14"/>
    </vehicle>
    <vehicle id="motorcycle22" type="motorcycle_motorcycle" depart="219.67" departLane="best" departSpeed="max">
        <route edges="E12 E7 E1 E8"/>
    </vehicle>
    <vehicle id="motorcycle23" type="motorcycle_motorcycle" depart="229.65" departLane="best" departSpeed="max">
        <route edges="E23 E3 E1 E15"/>
    </vehicle>
    <vehicle id="motorcycle24" type="motorcycle_motorcycle" depart="239.64" departLane="best">
        <route edges="E7 E4 E17"/>
    </vehicle>
    <vehicle id="motorcycle25" type="motorcycle_motorcycle" depart="249.62" departLane="best" departSpeed="max">
        <route edges="E16 E5 E6 E13"/>
    </vehicle>
    <vehicle id="motorcycle26" type="motorcycle_motorcycle" depart="259.61" departLane="best" departSpeed="max">
        <route edges="E21 E3 E6 E14"/>
    </vehicle>
    <vehicle id="motorcycle27" type="motorcycle_motorcycle" depart="269.59" departLane="best" departSpeed="max">
        <route edges="E18 E0 E6 E13"/>
    </vehicle>
    <vehicle id="motorcycle28" type="motorcycle_motorcycle" depart="279.58" departLane="best" departSpeed="max">
        <route edges="E9 E0 E2"/>
    </vehicle>
    <vehicle id="motorcycle29" type="motorcycle_motorcycle" depart="289.56" departLane="best" departSpeed="max">
        <route edges="E11 E5 E1"/>
    </vehicle>
    <vehicle id="motorcycle30" type="motorcycle_motorcycle" depart="299.55" departLane="best" departSpeed="max">
        <route edges="E11 E5 E2 E22"/>
    </vehicle>
    <vehicle id="motorcycle31" type="motorcycle_motorcycle" depart="309.53" departLane="best">
        <route edges="E1 E15"/>
    </vehicle>
    <vehicle id="motorcycle32" type="motorcycle_motorcycle" depart="319.52" departLane="best" departSpeed="max">
        <route edges="E9 E0 E2"/>
    </vehicle>
    <vehicle id="motorcycle33" type="motorcycle_motorcycle" depart="329.50" departLane="best" departSpeed="max">
        <route edges="E9 E0 E6"/>
    </vehicle>
    <vehicle id="motorcycle34" type="motorcycle_motorcycle" depart="339.49" departLane="best" departSpeed="max">
        <route edges="E16 E5 E2 E22"/>
    </vehicle>
    <vehicle id="motorcycle35" type="motorcycle_motorcycle" depart="349.47" departLane="best" departSpeed="max">
        <route edges="E11 E17"/>
    </vehicle>
    <vehicle id="motorcycle36" type="motorcycle_motorcycle" depart="359.46" departLane="best" departSpeed="max">
        <route edges="E19 E7 E1 E8"/>
    </vehicle>
    <vehicle id="motorcycle37" type="motorcycle_motorcycle" depart="369.44" departLane="best" departSpeed="max">
        <route edges="E16 E5 E2 E22"/>
    </vehicle>
    <vehicle id="motorcycle38" type="motorcycle_motorcycle" depart="379.43" departLane="best" departSpeed="max">
        <route edges="E21 E3 E4 E10"/>
    </vehicle>
    <vehicle id="motorcycle39" type="motorcycle_motorcycle" depart="389.41" departLane="best">
        <route edges="E0 E6 E14"/>
    </vehicle>
    <vehicle id="motorcycle40" type="motorcycle_motorcycle" depart="399.40" departLane="best" departSpeed="max">
        <route edges="E16 E5 E1"/>
    </vehicle>
    <vehicle id="motorcycle41" type="motorcycle_motorcycle" depart="409.38" departLane="best">
        <route edges="E7 E1 E8"/>
    </vehicle>
    <vehicle id="motorcycle42" type="motorcycle_motorcycle" depart="419.37" departLane="best" departSpeed="max">
        <route edges="E11 E17"/>
    </vehicle>
    <vehicle id="motorcycle43" type="motorcycle_motorcycle" depart="429.35" departLane="best">
        <route edges="E4 E10"/>
    </vehicle>
    <vehicle id="motorcycle44" type="motorcycle_motorcycle" depart="439.34" departLane="best" departSpeed="max">
        <route edges="E19 E7 E2 E20"/>
    </vehicle>
    <vehicle id="motorcycle45" type="motorcycle_motorcycle" depart="449.32" departLane="best" departSpeed="max">
        <route edges="E16 E5 E6"/>
    </vehicle>
    <vehicle id="motorcycle46" type="motorcycle_motorcycle" depart="459.31" departLane="best" departSpeed="max">
        <route edges="E19 E13"/>
    </vehicle>
    <vehicle id="motorcycle47" type="motorcycle_motorcycle" depart="469.29" departLane="best" departSpeed="max">
        <route edges="E12 E14"/>
    </vehicle>
    <vehicle id="motorcycle48" type="motorcycle_motorcycle" depart="479.28" departLane="best" departSpeed="max">
        <route edges="E9 E0 E2 E22"/>
    </vehicle>
    <vehicle id="motorcycle49" type="motorcycle_motorcycle" depart="489.26" departLane="best" departSpeed="max">
        <route edges="E19 E7 E2"/>
    </vehicle>
    <vehicle id="motorcycle50" type="motorcycle_motorcycle" depart="499.25" departLane="best" departSpeed="max">
        <route edges="E11 E5 E6 E13"/>
    </vehicle>
    <vehicle id="motorcycle51" type="motorcycle_motorcycle" depart="509.23" departLane="best" departSpeed="max">
        <route edges="E18 E0 E2 E20"/>
    </vehicle>
    <vehicle id="motorcycle52" type="motorcycle_motorcycle" depart="519.22" departLane="best" departSpeed="max">
        <route edges="E12 E7"/>
    </vehicle>
    <vehicle id="motorcycle53" type="motorcycle_motorcycle" depart="529.20" departLane="best" departSpeed="max">
        <route edges="E12 E7 E2 E22"/>
    </vehicle>
    <vehicle id="motorcycle54" type="motorcycle_motorcycle" depart="539.19" departLane="best" departSpeed="max">
        <route edges="E12 E7 E4 E10"/>
    </vehicle>
    <vehicle id="motorcycle55" type="motorcycle_motorcycle" depart="549.17" departLane="best" departSpeed="max">
        <route edges="E9 E0 E2 E20"/>
    </vehicle>
    <vehicle id="motorcycle56" type="motorcycle_motorcycle" depart="559.16" departLane="best" departSpeed="max">
        <route edges="E19 E7 E4"/>
    </vehicle>
    <vehicle id="motorcycle57" type="motorcycle_motorcycle" depart="569.14" departLane="best">
        <route edges="E5 E6 E13"/>
    </vehicle>
    <vehicle id="motorcycle58" type="motorcycle_motorcycle" depart="579.13" departLane="best" departSpeed="max">
        <route edges="E11 E17"/>
    </vehicle>
    <vehicle id="motorcycle59" type="motorcycle_motorcycle" depart="589.11" departLane="best" departSpeed="max">
        <route edges="E19 E7 E4 E17"/>
    </vehicle>
    <vehicle id="motorcycle60" type="motorcycle_motorcycle" depart="599.10" departLane="best" departSpeed="max">
        <route edges="E9 E0 E4 E10"/>
    </vehicle>
    <vehicle id="motorcycle61" type="motorcycle_motorcycle" depart="609.08" departLane="best" departSpeed="max">
        <route edges="E18 E15"/>
    </vehicle>
    <vehicle id="motorcycle62" type="motorcycle_motorcycle" depart="619.07" departLane="best">
        <route edges="E6 E13"/>
    </vehicle>
    <vehicle id="motorcycle63" type="motorcycle_motorcycle" depart="629.05" departLane="best" departSpeed="max">
        <route edges="E12 E7 E4 E17"/>
    </vehicle>
    <vehicle id="motorcycle64" type="motorcycle_motorcycle" depart="639.04" departLane="best" departSpeed="max">
        <route edges="E19 E14"/>
    </vehicle>
    <vehicle id="motorcycle65" type="motorcycle_motorcycle" depart="649.02" departLane="best" departSpeed="max">
        <route edges="E12 E7 E1 E8"/>
    </vehicle>
    <vehicle id="motorcycle66" type="motorcycle_motorcycle" depart="659.01" departLane="best" departSpeed="max">
        <route edges="E21 E3 E1"/>
    </vehicle>
    <vehicle id="motorcycle67" type="motorcycle_motorcycle" depart="668.99" departLane="best" departSpeed="max">
        <route edges="E9 E0 E6"/>
    </vehicle>
    <vehicle id="motorcycle68" type="motorcycle_motorcycle" depart="678.98" departLane="best" departSpeed="max">
        <route edges="E19 E13"/>
    </vehicle>
    <vehicle id="motorcycle69" type="motorcycle_motorcycle" depart="688.96" departLane="best" departSpeed="max">
        <route edges="E18 E8"/>
    </vehicle>
    <vehicle id="motorcycle70" type="motorcycle_motorcycle" depart="698.95" departLane="best" departSpeed="max">
        <route edges="E19 E7 E4 E17"/>
    </vehicle>
    <vehicle id="motorcycle71" type="motorcycle_motorcycle" depart="708.93" departLane="best" departSpeed="max">
        <route edges="E21 E3"/>
    </vehicle>
    <vehicle id="motorcycle72" type="motorcycle_motorcycle" depart="718.92" departLane="best" departSpeed="max">
        <route edges="E11 E5 E6 E14"/>
    </vehicle>
    <vehicle id="motorcycle73" type="motorcycle_motorcycle" depart="728.90" departLane="best" departSpeed="max">
        <route edges="E9 E0 E2 E20"/>
    </vehicle>
    <vehicle id="motorcycle74" type="motorcycle_motorcycle" depart="738.89" departLane="best" departSpeed="max">
        <route edges="E21 E3"/>
    </vehicle>
    <vehicle id="motorcycle75" type="motorcycle_motorcycle" depart="748.87" departLane="best" departSpeed="max">
        <route edges="E11 E5 E1 E8"/>
    </vehicle>
    <vehicle id="motorcycle76" type="motorcycle_motorcycle" depart="758.85" departLane="best" departSpeed="max">
        <route edges="E21 E22"/>
    </vehicle>
    <vehicle id="motorcycle77" type="motorcycle_motorcycle" depart="768.84" departLane="best" departSpeed="max">
        <route edges="E12 E7 E4 E10"/>
    </vehicle>
    <vehicle id="motorcycle78" type="motorcycle_motorcycle" depart="778.82" departLane="best" departSpeed="max">
        <route edges="E19 E7 E2 E20"/>
    </vehicle>
    <vehicle id="motorcycle79" type="motorcycle_motorcycle" depart="788.81" departLane="best" departSpeed="max">
        <route edges="E12 E7 E1 E15"/>
    </vehicle>
    <vehicle id="motorcycle80" type="motorcycle_motorcycle" depart="798.79" departLane="best" departSpeed="max">
        <route edges="E23 E3 E6 E14"/>
    </vehicle>
    <vehicle id="motorcycle81" type="motorcycle_motorcycle" depart="808.78" departLane="best" departSpeed="max">
        <route edges="E16 E5 E1 E8"/>
    </vehicle>
    <vehicle id="motorcycle82" type="motorcycle_motorcycle" depart="818.76" departLane="best">
        <route edges="E7"/>
    </vehicle>
    <vehicle id="motorcycle83" type="motorcycle_motorcycle" depart="828.75" departLane="best" departSpeed="max">
        <route edges="E18 E0 E4 E10"/>
    </vehicle>
    <vehicle id="motorcycle84" type="motorcycle_motorcycle" depart="838.73" departLane="best" departSpeed="max">
        <route edges="E21 E3 E1 E8"/>
    </vehicle>
    <vehicle id="motorcycle85" type="motorcycle_motorcycle" depart="848.72" departLane="best">
        <route edges="E5 E6 E14"/>
    </vehicle>
    <vehicle id="motorcycle86" type="motorcycle_motorcycle" depart="858.70" departLane="best" departSpeed="max">
        <route edges="E23 E3 E1 E8"/>
    </vehicle>
    <vehicle id="motorcycle87" type="motorcycle_motorcycle" depart="868.69" departLane="best" departSpeed="max">
        <route edges="E11 E5 E2 E20"/>
    </vehicle>
    <vehicle id="motorcycle88" type="motorcycle_motorcycle" depart="878.67" departLane="best" departSpeed="max">
        <route edges="E16 E5 E2 E20"/>
    </vehicle>
    <vehicle id="motorcycle89" type="motorcycle_motorcycle" depart="888.66" departLane="best">
        <route edges="E3 E6 E13"/>
    </vehicle>
    <vehicle id="motorcycle90" type="motorcycle_motorcycle" depart="898.64" departLane="best" departSpeed="max">
        <route edges="E23 E3 E6 E14"/>
    </vehicle>
    <vehicle id="motorcycle91" type="motorcycle_motorcycle" depart="908.63" departLane="best" departSpeed="max">
        <route edges="E19 E7"/>
    </vehicle>
    <vehicle id="motorcycle92" type="motorcycle_motorcycle" depart="918.61" departLane="best" departSpeed="max">
        <route edges="E19 E14"/>
    </vehicle>
    <vehicle id="motorcycle93" type="motorcycle_motorcycle" depart="928.60" departLane="best">
        <route edges="E0 E4"/>
    </vehicle>
    <vehicle id="motorcycle94" type="motorcycle_motorcycle" depart="938.58" departLane="best" departSpeed="max">
        <route edges="E23 E3 E6 E14"/>
    </vehicle>
    <vehicle id="motorcycle95" type="motorcycle_motorcycle" depart="948.57" departLane="best">
        <route edges="E7 E2 E20"/>
    </vehicle>
    <vehicle id="motorcycle96" type="motorcycle_motorcycle" depart="958.55" departLane="best">
        <route edges="E5 E6"/>
    </vehicle>
    <vehicle id="motorcycle97" type="motorcycle_motorcycle" depart="968.54" departLane="best" departSpeed="max">
        <route edges="E12 E7 E4 E10"/>
    </vehicle>
    <vehicle id="motorcycle98" type="motorcycle_motorcycle" depart="978.52" departLane="best" departSpeed="max">
        <route edges="E18 E0 E2 E20"/>
    </vehicle>
    <vehicle id="motorcycle99" type="motorcycle_motorcycle" depart="988.51" departLane="best" departSpeed="max">
        <route edges="E11 E5 E1 E8"/>
    </vehicle>
    <vehicle id="motorcycle100" type="motorcycle_motorcycle" depart="998.49" departLane="best" departSpeed="max">
        <route edges="E16 E5 E1 E8"/>
    </vehicle>
    <vehicle id="motorcycle101" type="motorcycle_motorcycle" depart="1008.48" departLane="best">
        <route edges="E5 E6"/>
    </vehicle>
    <vehicle id="motorcycle102" type="motorcycle_motorcycle" depart="1018.46" departLane="best">
        <route edges="E5 E6 E14"/>
    </vehicle>
    <vehicle id="motorcycle103" type="motorcycle_motorcycle" depart="1028.45" departLane="best">
        <route edges="E4 E10"/>
    </vehicle>
    <vehicle id="motorcycle104" type="motorcycle_motorcycle" depart="1038.43" departLane="best">
        <route edges="E6"/>
    </vehicle>
    <vehicle id="motorcycle105" type="motorcycle_motorcycle" depart="1048.42" departLane="best" departSpeed="max">
        <route edges="E19 E14"/>
    </vehicle>
    <vehicle id="motorcycle106" type="motorcycle_motorcycle" depart="1058.40" departLane="best">
        <route edges="E5 E6 E13"/>
    </vehicle>
    <vehicle id="motorcycle107" type="motorcycle_motorcycle" depart="1068.39" departLane="best">
        <route edges="E0 E6 E13"/>
    </vehicle>
    <vehicle id="motorcycle108" type="motorcycle_motorcycle" depart="1078.37" departLane="best" departSpeed="max">
        <route edges="E16 E5 E6"/>
    </vehicle>
    <vehicle id="motorcycle109" type="motorcycle_motorcycle" depart="1088.36" departLane="best" departSpeed="max">
        <route edges="E9 E0 E6 E14"/>
    </vehicle>
    <vehicle id="motorcycle110" type="motorcycle_motorcycle" depart="1098.34" departLane="best" departSpeed="max">
        <route edges="E23 E3 E1 E15"/>
    </vehicle>
    <vehicle id="motorcycle111" type="motorcycle_motorcycle" depart="1108.33" departLane="best" departSpeed="max">
        <route edges="E9 E0 E2"/>
    </vehicle>
    <vehicle id="motorcycle112" type="motorcycle_motorcycle" depart="1118.31" departLane="best" departSpeed="max">
        <route edges="E9 E0 E4 E10"/>
    </vehicle>
    <vehicle id="motorcycle113" type="motorcycle_motorcycle" depart="1128.30" departLane="best" departSpeed="max">
        <route edges="E9 E0 E6 E13"/>
    </vehicle>
    <vehicle id="motorcycle114" type="motorcycle_motorcycle" depart="1138.28" departLane="best" departSpeed="max">
        <route edges="E9 E0 E6 E14"/>
    </vehicle>
    <vehicle id="motorcycle115" type="motorcycle_motorcycle" depart="1148.27" departLane="best" departSpeed="max">
        <route edges="E11 E17"/>
    </vehicle>
    <vehicle id="motorcycle116" type="motorcycle_motorcycle" depart="1158.25" departLane="best">
        <route edges="E3 E6 E14"/>
    </vehicle>
    <vehicle id="motorcycle117" type="motorcycle_motorcycle" depart="1168.24" departLane="best" departSpeed="max">
        <route edges="E18 E0 E2 E20"/>
    </vehicle>
    <vehicle id="motorcycle118" type="motorcycle_motorcycle" depart="1178.22" departLane="best" departSpeed="max">
        <route edges="E23 E3 E6 E14"/>
    </vehicle>
    <vehicle id="motorcycle119" type="motorcycle_motorcycle" depart="1188.21" departLane="best" departSpeed="max">
        <route edges="E16 E5 E6"/>
    </vehicle>
    <vehicle id="motorcycle120" type="motorcycle_motorcycle" depart="1198.19" departLane="best">
        <route edges="E3 E6 E14"/>
    </vehicle>
    <vehicle id="motorcycle121" type="motorcycle_motorcycle" depart="1208.18" departLane="best" departSpeed="max">
        <route edges="E16 E5 E1 E15"/>
    </vehicle>
    <vehicle id="motorcycle122" type="motorcycle_motorcycle" depart="1218.16" departLane="best" departSpeed="max">
        <route edges="E18 E0 E6 E14"/>
    </vehicle>
    <vehicle id="motorcycle123" type="motorcycle_motorcycle" depart="1228.15" departLane="best" departSpeed="max">
        <route edges="E11 E17"/>
    </vehicle>
    <vehicle id="motorcycle124" type="motorcycle_motorcycle" depart="1238.13" departLane="best" departSpeed="max">
        <route edges="E9 E0 E2 E22"/>
    </vehicle>
    <vehicle id="motorcycle125" type="motorcycle_motorcycle" depart="1248.12" departLane="best">
        <route edges="E7 E2 E20"/>
    </vehicle>
    <vehicle id="motorcycle126" type="motorcycle_motorcycle" depart="1258.10" departLane="best" departSpeed="max">
        <route edges="E16 E5 E2 E20"/>
    </vehicle>
    <vehicle id="motorcycle127" type="motorcycle_motorcycle" depart="1268.09" departLane="best">
        <route edges="E0 E6 E14"/>
    </vehicle>
    <vehicle id="motorcycle128" type="motorcycle_motorcycle" depart="1278.07" departLane="best" departSpeed="max">
        <route edges="E19 E7 E2 E20"/>
    </vehicle>
    <vehicle id="motorcycle129" type="motorcycle_motorcycle" depart="1288.06" departLane="best" departSpeed="max">
        <route edges="E23 E3 E4 E17"/>
    </vehicle>
    <vehicle id="motorcycle130" type="motorcycle_motorcycle" depart="1298.04" departLane="best" departSpeed="max">
        <route edges="E19 E13"/>
    </vehicle>
    <vehicle id="motorcycle131" type="motorcycle_motorcycle" depart="1308.03" departLane="best" departSpeed="max">
        <route edges="E19 E7"/>
    </vehicle>
    <vehicle id="motorcycle132" type="motorcycle_motorcycle" depart="1318.01" departLane="best">
        <route edges="E5 E6 E13"/>
    </vehicle>
    <vehicle id="motorcycle133" type="motorcycle_motorcycle" depart="1328.00" departLane="best" departSpeed="max">
        <route edges="E11 E5 E2"/>
    </vehicle>
    <vehicle id="motorcycle134" type="motorcycle_motorcycle" depart="1337.98" departLane="best" departSpeed="max">
        <route edges="E23 E3 E1 E15"/>
    </vehicle>
    <vehicle id="motorcycle135" type="motorcycle_motorcycle" depart="1347.97" departLane="best" departSpeed="max">
        <route edges="E23 E3 E6 E13"/>
    </vehicle>
    <vehicle id="motorcycle136" type="motorcycle_motorcycle" depart="1357.95" departLane="best" departSpeed="max">
        <route edges="E12 E7 E4 E17"/>
    </vehicle>
    <vehicle id="motorcycle137" type="motorcycle_motorcycle" depart="1367.94" departLane="best" departSpeed="max">
        <route edges="E18 E0 E2 E22"/>
    </vehicle>
    <vehicle id="motorcycle138" type="motorcycle_motorcycle" depart="1377.92" departLane="best" departSpeed="max">
        <route edges="E12 E7 E2 E22"/>
    </vehicle>
    <vehicle id="motorcycle139" type="motorcycle_motorcycle" depart="1387.91" departLane="best" departSpeed="max">
        <route edges="E19 E13"/>
    </vehicle>
    <vehicle id="motorcycle140" type="motorcycle_motorcycle" depart="1397.89" departLane="best">
        <route edges="E4"/>
    </vehicle>
    <vehicle id="motorcycle141" type="motorcycle_motorcycle" depart="1407.88" departLane="best" departSpeed="max">
        <route edges="E11 E17"/>
    </vehicle>
    <vehicle id="motorcycle142" type="motorcycle_motorcycle" depart="1417.86" departLane="best" departSpeed="max">
        <route edges="E12 E7 E1 E8"/>
    </vehicle>
    <vehicle id="motorcycle143" type="motorcycle_motorcycle" depart="1427.85" departLane="best" departSpeed="max">
        <route edges="E23 E3 E1 E8"/>
    </vehicle>
    <vehicle id="motorcycle144" type="motorcycle_motorcycle" depart="1437.83" departLane="best" departSpeed="max">
        <route edges="E21 E3 E1 E8"/>
    </vehicle>
    <vehicle id="motorcycle145" type="motorcycle_motorcycle" depart="1447.82" departLane="best">
        <route edges="E7 E2 E20"/>
    </vehicle>
    <vehicle id="motorcycle146" type="motorcycle_motorcycle" depart="1457.80" departLane="best">
        <route edges="E5 E2 E20"/>
    </vehicle>
    <vehicle id="motorcycle147" type="motorcycle_motorcycle" depart="1467.79" departLane="best" departSpeed="max">
        <route edges="E19 E14"/>
    </vehicle>
    <vehicle id="motorcycle148" type="motorcycle_motorcycle" depart="1477.77" departLane="best" departSpeed="max">
        <route edges="E12 E7 E2 E22"/>
    </vehicle>
    <vehicle id="motorcycle149" type="motorcycle_motorcycle" depart="1487.76" departLane="best" departSpeed="max">
        <route edges="E23 E3 E6 E14"/>
    </vehicle>
    <vehicle id="motorcycle150" type="motorcycle_motorcycle" depart="1497.74" departLane="best" departSpeed="max">
        <route edges="E16 E5 E6 E14"/>
    </vehicle>
    <vehicle id="motorcycle151" type="motorcycle_motorcycle" depart="1507.73" departLane="best" departSpeed="max">
        <route edges="E12 E7 E2 E22"/>
    </vehicle>
    <vehicle id="motorcycle152" type="motorcycle_motorcycle" depart="1517.71" departLane="best" departSpeed="max">
        <route edges="E23 E3 E1"/>
    </vehicle>
    <vehicle id="motorcycle153" type="motorcycle_motorcycle" depart="1527.69" departLane="best" departSpeed="max">
        <route edges="E18 E0 E2 E20"/>
    </vehicle>
    <vehicle id="motorcycle154" type="motorcycle_motorcycle" depart="1537.68" departLane="best" departSpeed="max">
        <route edges="E18 E0 E6 E13"/>
    </vehicle>
    <vehicle id="motorcycle155" type="motorcycle_motorcycle" depart="1547.66" departLane="best" departSpeed="max">
        <route edges="E19 E7"/>
    </vehicle>
    <vehicle id="motorcycle156" type="motorcycle_motorcycle" depart="1557.65" departLane="best" departSpeed="max">
        <route edges="E21 E22"/>
    </vehicle>
    <vehicle id="motorcycle157" type="motorcycle_motorcycle" depart="1567.63" departLane="best" departSpeed="max">
        <route edges="E18 E0"/>
    </vehicle>
    <vehicle id="motorcycle158" type="motorcycle_motorcycle" depart="1577.62" departLane="best" departSpeed="max">
        <route edges="E18 E0 E4"/>
    </vehicle>
    <vehicle id="motorcycle159" type="motorcycle_motorcycle" depart="1587.60" departLane="best" departSpeed="max">
        <route edges="E18 E0 E2 E22"/>
    </vehicle>
    <vehicle id="motorcycle160" type="motorcycle_motorcycle" depart="1597.59" departLane="best" departSpeed="max">
        <route edges="E18 E0 E4 E10"/>
    </vehicle>
    <vehicle id="motorcycle161" type="motorcycle_motorcycle" depart="1607.57" departLane="best" departSpeed="max">
        <route edges="E19 E7 E4 E10"/>
    </vehicle>
    <vehicle id="motorcycle162" type="motorcycle_motorcycle" depart="1617.56" departLane="best" departSpeed="max">
        <route edges="E18 E0 E2 E20"/>
    </vehicle>
    <vehicle id="motorcycle163" type="motorcycle_motorcycle" depart="1627.54" departLane="best">
        <route edges="E0 E2 E22"/>
    </vehicle>
    <vehicle id="motorcycle164" type="motorcycle_motorcycle" depart="1637.53" departLane="best" departSpeed="max">
        <route edges="E11 E17"/>
    </vehicle>
    <vehicle id="motorcycle165" type="motorcycle_motorcycle" depart="1647.51" departLane="best">
        <route edges="E1 E15"/>
    </vehicle>
    <vehicle id="motorcycle166" type="motorcycle_motorcycle" depart="1657.50" departLane="best" departSpeed="max">
        <route edges="E12 E14"/>
    </vehicle>
    <vehicle id="motorcycle167" type="motorcycle_motorcycle" depart="1667.48" departLane="best" departSpeed="max">
        <route edges="E16 E5 E1"/>
    </vehicle>
    <vehicle id="motorcycle168" type="motorcycle_motorcycle" depart="1677.47" departLane="best">
        <route edges="E0 E2"/>
    </vehicle>
    <vehicle id="motorcycle169" type="motorcycle_motorcycle" depart="1687.45" departLane="best" departSpeed="max">
        <route edges="E9 E15"/>
    </vehicle>
    <vehicle id="motorcycle170" type="motorcycle_motorcycle" depart="1697.44" departLane="best" departSpeed="max">
        <route edges="E23 E3 E4"/>
    </vehicle>
    <vehicle id="motorcycle171" type="motorcycle_motorcycle" depart="1707.42" departLane="best" departSpeed="max">
        <route edges="E23 E3 E4"/>
    </vehicle>
    <vehicle id="motorcycle172" type="motorcycle_motorcycle" depart="1717.41" departLane="best" departSpeed="max">
        <route edges="E9 E0 E6 E13"/>
    </vehicle>
    <vehicle id="motorcycle173" type="motorcycle_motorcycle" depart="1727.39" departLane="best">
        <route edges="E0 E4 E10"/>
    </vehicle>