<?xml version="1.0" encoding="UTF-8"?>

<!-- generated on 2025-07-01 15:12:11.966959 by randomTrips.py v1_23_1+0000-676720d13f6
<configuration>
    <net-file value="osm.net.xml.gz"/>
    <output-trip-file value="osm.bicycle.trips.xml"/>
    <route-file value="osm.bicycle.rou.xml"/>
    <prefix value="bike"/>
    <trip-attributes value="departLane=&quot;best&quot;"/>
    <fringe-start-attributes value="departSpeed=&quot;max&quot;"/>
    <vehicle-class value="bicycle"/>
    <fringe-factor value="2"/>
    <edge-permission value="bicycle"/>
    <via-edge-types value="highway.motorway,highway.motorway_link,highway.trunk_link,highway.primary_link,highway.secondary_link,highway.tertiary_link"/>
    <max-distance value="8000.0"/>
    <remove-loops value="True"/>
    <validate value="True"/>
    <insertion-density value="60.0"/>
</configuration>
-->

<routes xmlns:xsi="http://www.w3.org/2001/XMLSchema-instance" xsi:noNamespaceSchemaLocation="http://sumo.dlr.de/xsd/routes_file.xsd">
    <vType id="bike_bicycle" vClass="bicycle"/>
    <trip id="bike0" depart="0.00" from="E16" to="E13" departLane="best" type="bike_bicycle" departSpeed="max"/>
    <trip id="bike1" depart="6.66" from="E7" to="E10" departLane="best" type="bike_bicycle"/>
    <trip id="bike2" depart="13.31" from="E12" to="E2" departLane="best" type="bike_bicycle" departSpeed="max"/>
    <trip id="bike3" depart="19.97" from="E0" to="E13" departLane="best" type="bike_bicycle"/>
    <trip id="bike4" depart="26.63" from="E23" to="E20" departLane="best" type="bike_bicycle" departSpeed="max"/>
    <trip id="bike5" depart="33.28" from="E12" to="E20" departLane="best" type="bike_bicycle" departSpeed="max"/>
    <trip id="bike6" depart="39.94" from="E5" to="E22" departLane="best" type="bike_bicycle"/>
    <trip id="bike7" depart="46.60" from="E18" to="E10" departLane="best" type="bike_bicycle" departSpeed="max"/>
    <trip id="bike8" depart="53.25" from="E9" to="E15" departLane="best" type="bike_bicycle" departSpeed="max"/>
    <trip id="bike9" depart="59.91" from="E18" to="E20" departLane="best" type="bike_bicycle" departSpeed="max"/>
    <trip id="bike10" depart="66.57" from="E5" to="E20" departLane="best" type="bike_bicycle"/>
    <trip id="bike11" depart="73.22" from="E23" to="E1" departLane="best" type="bike_bicycle" departSpeed="max"/>
    <trip id="bike12" depart="79.88" from="E12" to="E14" departLane="best" type="bike_bicycle" departSpeed="max"/>
    <trip id="bike13" depart="86.54" from="E11" to="E14" departLane="best" type="bike_bicycle" departSpeed="max"/>
    <trip id="bike14" depart="93.19" from="E23" to="E15" departLane="best" type="bike_bicycle" departSpeed="max"/>
    <trip id="bike15" depart="99.85" from="E18" to="E13" departLane="best" type="bike_bicycle" departSpeed="max"/>
    <trip id="bike16" depart="106.51" from="E16" to="E8" departLane="best" type="bike_bicycle" departSpeed="max"/>
    <trip id="bike17" depart="113.16" from="E23" to="E20" departLane="best" type="bike_bicycle" departSpeed="max"/>
    <trip id="bike18" depart="119.82" from="E11" to="E15" departLane="best" type="bike_bicycle" departSpeed="max"/>
    <trip id="bike19" depart="126.48" from="E9" to="E22" departLane="best" type="bike_bicycle" departSpeed="max"/>
    <trip id="bike20" depart="133.13" from="E21" to="E22" departLane="best" type="bike_bicycle" departSpeed="max"/>
    <trip id="bike21" depart="139.79" from="E16" to="E14" departLane="best" type="bike_bicycle" departSpeed="max"/>
    <trip id="bike22" depart="146.45" from="E12" to="E8" departLane="best" type="bike_bicycle" departSpeed="max"/>
    <trip id="bike23" depart="153.10" from="E23" to="E15" departLane="best" type="bike_bicycle" departSpeed="max"/>
    <trip id="bike24" depart="159.76" from="E7" to="E17" departLane="best" type="bike_bicycle"/>
    <trip id="bike25" depart="166.42" from="E16" to="E13" departLane="best" type="bike_bicycle" departSpeed="max"/>
    <trip id="bike26" depart="173.07" from="E21" to="E14" departLane="best" type="bike_bicycle" departSpeed="max"/>
    <trip id="bike27" depart="179.73" from="E18" to="E13" departLane="best" type="bike_bicycle" departSpeed="max"/>
    <trip id="bike28" depart="186.39" from="E9" to="E2" departLane="best" type="bike_bicycle" departSpeed="max"/>
    <trip id="bike29" depart="193.04" from="E11" to="E1" departLane="best" type="bike_bicycle" departSpeed="max"/>
    <trip id="bike30" depart="199.70" from="E11" to="E22" departLane="best" type="bike_bicycle" departSpeed="max"/>
    <trip id="bike31" depart="206.36" from="E1" to="E15" departLane="best" type="bike_bicycle"/>
    <trip id="bike32" depart="213.01" from="E9" to="E2" departLane="best" type="bike_bicycle" departSpeed="max"/>
    <trip id="bike33" depart="219.67" from="E9" to="E6" departLane="best" type="bike_bicycle" departSpeed="max"/>
    <trip id="bike34" depart="226.33" from="E16" to="E22" departLane="best" type="bike_bicycle" departSpeed="max"/>
    <trip id="bike35" depart="232.98" from="E11" to="E17" departLane="best" type="bike_bicycle" departSpeed="max"/>
    <trip id="bike36" depart="239.64" from="E19" to="E8" departLane="best" type="bike_bicycle" departSpeed="max"/>
    <trip id="bike37" depart="246.30" from="E16" to="E22" departLane="best" type="bike_bicycle" departSpeed="max"/>
    <trip id="bike38" depart="252.95" from="E21" to="E10" departLane="best" type="bike_bicycle" departSpeed="max"/>
    <trip id="bike39" depart="259.61" from="E0" to="E14" departLane="best" type="bike_bicycle"/>
    <trip id="bike40" depart="266.26" from="E16" to="E1" departLane="best" type="bike_bicycle" departSpeed="max"/>
    <trip id="bike41" depart="272.92" from="E7" to="E8" departLane="best" type="bike_bicycle"/>
    <trip id="bike42" depart="279.58" from="E11" to="E17" departLane="best" type="bike_bicycle" departSpeed="max"/>
    <trip id="bike43" depart="286.23" from="E4" to="E10" departLane="best" type="bike_bicycle"/>
    <trip id="bike44" depart="292.89" from="E19" to="E20" departLane="best" type="bike_bicycle" departSpeed="max"/>
    <trip id="bike45" depart="299.55" from="E16" to="E6" departLane="best" type="bike_bicycle" departSpeed="max"/>
    <trip id="bike46" depart="306.20" from="E19" to="E13" departLane="best" type="bike_bicycle" departSpeed="max"/>
    <trip id="bike47" depart="312.86" from="E12" to="E14" departLane="best" type="bike_bicycle" departSpeed="max"/>
    <trip id="bike48" depart="319.52" from="E9" to="E22" departLane="best" type="bike_bicycle" departSpeed="max"/>
    <trip id="bike49" depart="326.17" from="E19" to="E2" departLane="best" type="bike_bicycle" departSpeed="max"/>
    <trip id="bike50" depart="332.83" from="E11" to="E13" departLane="best" type="bike_bicycle" departSpeed="max"/>
    <trip id="bike51" depart="339.49" from="E18" to="E20" departLane="best" type="bike_bicycle" departSpeed="max"/>
    <trip id="bike52" depart="346.14" from="E12" to="E7" departLane="best" type="bike_bicycle" departSpeed="max"/>
    <trip id="bike53" depart="352.80" from="E12" to="E22" departLane="best" type="bike_bicycle" departSpeed="max"/>
    <trip id="bike54" depart="359.46" from="E12" to="E10" departLane="best" type="bike_bicycle" departSpeed="max"/>
    <trip id="bike55" depart="366.11" from="E9" to="E20" departLane="best" type="bike_bicycle" departSpeed="max"/>
    <trip id="bike56" depart="372.77" from="E19" to="E4" departLane="best" type="bike_bicycle" departSpeed="max"/>
    <trip id="bike57" depart="379.43" from="E5" to="E13" departLane="best" type="bike_bicycle"/>
    <trip id="bike58" depart="386.08" from="E11" to="E17" departLane="best" type="bike_bicycle" departSpeed="max"/>
    <trip id="bike59" depart="392.74" from="E19" to="E17" departLane="best" type="bike_bicycle" departSpeed="max"/>
    <trip id="bike60" depart="399.40" from="E9" to="E10" departLane="best" type="bike_bicycle" departSpeed="max"/>
    <trip id="bike61" depart="406.05" from="E18" to="E15" departLane="best" type="bike_bicycle" departSpeed="max"/>
    <trip id="bike62" depart="412.71" from="E6" to="E13" departLane="best" type="bike_bicycle"/>
    <trip id="bike63" depart="419.37" from="E12" to="E17" departLane="best" type="bike_bicycle" departSpeed="max"/>
    <trip id="bike64" depart="426.02" from="E19" to="E14" departLane="best" type="bike_bicycle" departSpeed="max"/>
    <trip id="bike65" depart="432.68" from="E12" to="E8" departLane="best" type="bike_bicycle" departSpeed="max"/>
    <trip id="bike66" depart="439.34" from="E21" to="E1" departLane="best" type="bike_bicycle" departSpeed="max"/>
    <trip id="bike67" depart="445.99" from="E9" to="E6" departLane="best" type="bike_bicycle" departSpeed="max"/>
    <trip id="bike68" depart="452.65" from="E19" to="E13" departLane="best" type="bike_bicycle" departSpeed="max"/>
    <trip id="bike69" depart="459.31" from="E18" to="E8" departLane="best" type="bike_bicycle" departSpeed="max"/>
    <trip id="bike70" depart="465.96" from="E19" to="E17" departLane="best" type="bike_bicycle" departSpeed="max"/>
    <trip id="bike71" depart="472.62" from="E21" to="E3" departLane="best" type="bike_bicycle" departSpeed="max"/>
    <trip id="bike72" depart="479.28" from="E11" to="E14" departLane="best" type="bike_bicycle" departSpeed="max"/>
    <trip id="bike73" depart="485.93" from="E9" to="E20" departLane="best" type="bike_bicycle" departSpeed="max"/>
    <trip id="bike74" depart="492.59" from="E21" to="E3" departLane="best" type="bike_bicycle" departSpeed="max"/>
    <trip id="bike75" depart="499.25" from="E11" to="E8" departLane="best" type="bike_bicycle" departSpeed="max"/>
    <trip id="bike76" depart="505.90" from="E21" to="E22" departLane="best" type="bike_bicycle" departSpeed="max"/>
    <trip id="bike77" depart="512.56" from="E12" to="E10" departLane="best" type="bike_bicycle" departSpeed="max"/>
    <trip id="bike78" depart="519.22" from="E19" to="E20" departLane="best" type="bike_bicycle" departSpeed="max"/>
    <trip id="bike79" depart="525.87" from="E12" to="E15" departLane="best" type="bike_bicycle" departSpeed="max"/>
    <trip id="bike80" depart="532.53" from="E23" to="E14" departLane="best" type="bike_bicycle" departSpeed="max"/>
    <trip id="bike81" depart="539.19" from="E16" to="E8" departLane="best" type="bike_bicycle" departSpeed="max"/>
    <trip id="bike82" depart="545.84" from="E7" to="E7" departLane="best" type="bike_bicycle"/>
    <trip id="bike83" depart="552.50" from="E18" to="E10" departLane="best" type="bike_bicycle" departSpeed="max"/>
    <trip id="bike84" depart="559.16" from="E21" to="E8" departLane="best" type="bike_bicycle" departSpeed="max"/>
    <trip id="bike85" depart="565.81" from="E5" to="E14" departLane="best" type="bike_bicycle"/>
    <trip id="bike86" depart="572.47" from="E23" to="E8" departLane="best" type="bike_bicycle" departSpeed="max"/>
    <trip id="bike87" depart="579.13" from="E11" to="E20" departLane="best" type="bike_bicycle" departSpeed="max"/>
    <trip id="bike88" depart="585.78" from="E16" to="E20" departLane="best" type="bike_bicycle" departSpeed="max"/>
    <trip id="bike89" depart="592.44" from="E3" to="E13" departLane="best" type="bike_bicycle"/>
    <trip id="bike90" depart="599.10" from="E23" to="E14" departLane="best" type="bike_bicycle" departSpeed="max"/>
    <trip id="bike91" depart="605.75" from="E19" to="E7" departLane="best" type="bike_bicycle" departSpeed="max"/>
    <trip id="bike92" depart="612.41" from="E19" to="E14" departLane="best" type="bike_bicycle" departSpeed="max"/>
    <trip id="bike93" depart="619.07" from="E0" to="E4" departLane="best" type="bike_bicycle"/>
    <trip id="bike94" depart="625.72" from="E23" to="E14" departLane="best" type="bike_bicycle" departSpeed="max"/>
    <trip id="bike95" depart="632.38" from="E7" to="E20" departLane="best" type="bike_bicycle"/>
    <trip id="bike96" depart="639.04" from="E5" to="E6" departLane="best" type="bike_bicycle"/>
    <trip id="bike97" depart="645.69" from="E12" to="E10" departLane="best" type="bike_bicycle" departSpeed="max"/>
    <trip id="bike98" depart="652.35" from="E18" to="E20" departLane="best" type="bike_bicycle" departSpeed="max"/>
    <trip id="bike99" depart="659.01" from="E11" to="E8" departLane="best" type="bike_bicycle" departSpeed="max"/>
    <trip id="bike100" depart="665.66" from="E16" to="E8" departLane="best" type="bike_bicycle" departSpeed="max"/>
    <trip id="bike101" depart="672.32" from="E5" to="E6" departLane="best" type="bike_bicycle"/>
    <trip id="bike102" depart="678.98" from="E5" to="E14" departLane="best" type="bike_bicycle"/>
    <trip id="bike103" depart="685.63" from="E4" to="E10" departLane="best" type="bike_bicycle"/>
    <trip id="bike104" depart="692.29" from="E6" to="E6" departLane="best" type="bike_bicycle"/>
    <trip id="bike105" depart="698.95" from="E19" to="E14" departLane="best" type="bike_bicycle" departSpeed="max"/>
    <trip id="bike106" depart="705.60" from="E5" to="E13" departLane="best" type="bike_bicycle"/>
    <trip id="bike107" depart="712.26" from="E0" to="E13" departLane="best" type="bike_bicycle"/>
    <trip id="bike108" depart="718.92" from="E16" to="E6" departLane="best" type="bike_bicycle" departSpeed="max"/>
    <trip id="bike109" depart="725.57" from="E9" to="E14" departLane="best" type="bike_bicycle" departSpeed="max"/>
    <trip id="bike110" depart="732.23" from="E23" to="E15" departLane="best" type="bike_bicycle" departSpeed="max"/>
    <trip id="bike111" depart="738.89" from="E9" to="E2" departLane="best" type="bike_bicycle" departSpeed="max"/>
    <trip id="bike112" depart="745.54" from="E9" to="E10" departLane="best" type="bike_bicycle" departSpeed="max"/>
    <trip id="bike113" depart="752.20" from="E9" to="E13" departLane="best" type="bike_bicycle" departSpeed="max"/>
    <trip id="bike114" depart="758.85" from="E9" to="E14" departLane="best" type="bike_bicycle" departSpeed="max"/>
    <trip id="bike115" depart="765.51" from="E11" to="E17" departLane="best" type="bike_bicycle" departSpeed="max"/>
    <trip id="bike116" depart="772.17" from="E3" to="E14" departLane="best" type="bike_bicycle"/>
    <trip id="bike117" depart="778.82" from="E18" to="E20" departLane="best" type="bike_bicycle" departSpeed="max"/>
    <trip id="bike118" depart="785.48" from="E23" to="E14" departLane="best" type="bike_bicycle" departSpeed="max"/>
    <trip id="bike119" depart="792.14" from="E16" to="E6" departLane="best" type="bike_bicycle" departSpeed="max"/>
    <trip id="bike120" depart="798.79" from="E3" to="E14" departLane="best" type="bike_bicycle"/>
    <trip id="bike121" depart="805.45" from="E16" to="E15" departLane="best" type="bike_bicycle" departSpeed="max"/>
    <trip id="bike122" depart="812.11" from="E18" to="E14" departLane="best" type="bike_bicycle" departSpeed="max"/>
    <trip id="bike123" depart="818.76" from="E11" to="E17" departLane="best" type="bike_bicycle" departSpeed="max"/>
    <trip id="bike124" depart="825.42" from="E9" to="E22" departLane="best" type="bike_bicycle" departSpeed="max"/>
    <trip id="bike125" depart="832.08" from="E7" to="E20" departLane="best" type="bike_bicycle"/>
    <trip id="bike126" depart="838.73" from="E16" to="E20" departLane="best" type="bike_bicycle" departSpeed="max"/>
    <trip id="bike127" depart="845.39" from="E0" to="E14" departLane="best" type="bike_bicycle"/>
    <trip id="bike128" depart="852.05" from="E19" to="E20" departLane="best" type="bike_bicycle" departSpeed="max"/>
    <trip id="bike129" depart="858.70" from="E23" to="E17" departLane="best" type="bike_bicycle" departSpeed="max"/>
    <trip id="bike130" depart="865.36" from="E19" to="E13" departLane="best" type="bike_bicycle" departSpeed="max"/>
    <trip id="bike131" depart="872.02" from="E19" to="E7" departLane="best" type="bike_bicycle" departSpeed="max"/>
    <trip id="bike132" depart="878.67" from="E5" to="E13" departLane="best" type="bike_bicycle"/>
    <trip id="bike133" depart="885.33" from="E11" to="E2" departLane="best" type="bike_bicycle" departSpeed="max"/>
    <trip id="bike134" depart="891.99" from="E23" to="E15" departLane="best" type="bike_bicycle" departSpeed="max"/>
    <trip id="bike135" depart="898.64" from="E23" to="E13" departLane="best" type="bike_bicycle" departSpeed="max"/>
    <trip id="bike136" depart="905.30" from="E12" to="E17" departLane="best" type="bike_bicycle" departSpeed="max"/>
    <trip id="bike137" depart="911.96" from="E18" to="E22" departLane="best" type="bike_bicycle" departSpeed="max"/>
    <trip id="bike138" depart="918.61" from="E12" to="E22" departLane="best" type="bike_bicycle" departSpeed="max"/>
    <trip id="bike139" depart="925.27" from="E19" to="E13" departLane="best" type="bike_bicycle" departSpeed="max"/>
    <trip id="bike140" depart="931.93" from="E4" to="E4" departLane="best" type="bike_bicycle"/>
    <trip id="bike141" depart="938.58" from="E11" to="E17" departLane="best" type="bike_bicycle" departSpeed="max"/>
    <trip id="bike142" depart="945.24" from="E12" to="E8" departLane="best" type="bike_bicycle" departSpeed="max"/>
    <trip id="bike143" depart="951.90" from="E23" to="E8" departLane="best" type="bike_bicycle" departSpeed="max"/>
    <trip id="bike144" depart="958.55" from="E21" to="E8" departLane="best" type="bike_bicycle" departSpeed="max"/>
    <trip id="bike145" depart="965.21" from="E7" to="E20" departLane="best" type="bike_bicycle"/>
    <trip id="bike146" depart="971.87" from="E5" to="E20" departLane="best" type="bike_bicycle"/>
    <trip id="bike147" depart="978.52" from="E19" to="E14" departLane="best" type="bike_bicycle" departSpeed="max"/>
    <trip id="bike148" depart="985.18" from="E12" to="E22" departLane="best" type="bike_bicycle" departSpeed="max"/>
    <trip id="bike149" depart="991.84" from="E23" to="E14" departLane="best" type="bike_bicycle" departSpeed="max"/>
    <trip id="bike150" depart="998.49" from="E16" to="E14" departLane="best" type="bike_bicycle" departSpeed="max"/>
    <trip id="bike151" depart="1005.15" from="E12" to="E22" departLane="best" type="bike_bicycle" departSpeed="max"/>
    <trip id="bike152" depart="1011.81" from="E23" to="E1" departLane="best" type="bike_bicycle" departSpeed="max"/>
    <trip id="bike153" depart="1018.46" from="E18" to="E20" departLane="best" type="bike_bicycle" departSpeed="max"/>
    <trip id="bike154" depart="1025.12" from="E18" to="E13" departLane="best" type="bike_bicycle" departSpeed="max"/>
    <trip id="bike155" depart="1031.78" from="E19" to="E7" departLane="best" type="bike_bicycle" departSpeed="max"/>
    <trip id="bike156" depart="1038.43" from="E21" to="E22" departLane="best" type="bike_bicycle" departSpeed="max"/>
    <trip id="bike157" depart="1045.09" from="E18" to="E0" departLane="best" type="bike_bicycle" departSpeed="max"/>
    <trip id="bike158" depart="1051.75" from="E18" to="E4" departLane="best" type="bike_bicycle" departSpeed="max"/>
    <trip id="bike159" depart="1058.40" from="E18" to="E22" departLane="best" type="bike_bicycle" departSpeed="max"/>
    <trip id="bike160" depart="1065.06" from="E18" to="E10" departLane="best" type="bike_bicycle" departSpeed="max"/>
    <trip id="bike161" depart="1071.72" from="E19" to="E10" departLane="best" type="bike_bicycle" departSpeed="max"/>
    <trip id="bike162" depart="1078.37" from="E18" to="E20" departLane="best" type="bike_bicycle" departSpeed="max"/>
    <trip id="bike163" depart="1085.03" from="E0" to="E22" departLane="best" type="bike_bicycle"/>
    <trip id="bike164" depart="1091.69" from="E11" to="E17" departLane="best" type="bike_bicycle" departSpeed="max"/>
    <trip id="bike165" depart="1098.34" from="E1" to="E15" departLane="best" type="bike_bicycle"/>
    <trip id="bike166" depart="1105.00" from="E12" to="E14" departLane="best" type="bike_bicycle" departSpeed="max"/>
    <trip id="bike167" depart="1111.66" from="E16" to="E1" departLane="best" type="bike_bicycle" departSpeed="max"/>
    <trip id="bike168" depart="1118.31" from="E0" to="E2" departLane="best" type="bike_bicycle"/>
    <trip id="bike169" depart="1124.97" from="E9" to="E15" departLane="best" type="bike_bicycle" departSpeed="max"/>
    <trip id="bike170" depart="1131.63" from="E23" to="E4" departLane="best" type="bike_bicycle" departSpeed="max"/>
    <trip id="bike171" depart="1138.28" from="E23" to="E4" departLane="best" type="bike_bicycle" departSpeed="max"/>
    <trip id="bike172" depart="1144.94" from="E9" to="E13" departLane="best" type="bike_bicycle" departSpeed="max"/>
    <trip id="bike173" depart="1151.60" from="E0" to="E10" departLane="best" type="bike_bicycle"/>
    <trip id="bike174" depart="1158.25" from="E11" to="E22" departLane="best" type="bike_bicycle" departSpeed="max"/>
    <trip id="bike175" depart="1164.91" from="E21" to="E13" departLane="best" type="bike_bicycle" departSpeed="max"/>
    <trip id="bike176" depart="1171.57" from="E23" to="E4" departLane="best" type="bike_bicycle" departSpeed="max"/>
    <trip id="bike177" depart="1178.22" from="E12" to="E20" departLane="best" type="bike_bicycle" departSpeed="max"/>
    <trip id="bike178" depart="1184.88" from="E3" to="E10" departLane="best" type="bike_bicycle"/>
    <trip id="bike179" depart="1191.54" from="E5" to="E8" departLane="best" type="bike_bicycle"/>
    <trip id="bike180" depart="1198.19" from="E16" to="E22" departLane="best" type="bike_bicycle" departSpeed="max"/>
    <trip id="bike181" depart="1204.85" from="E9" to="E15" departLane="best" type="bike_bicycle" departSpeed="max"/>
    <trip id="bike182" depart="1211.51" from="E3" to="E1" departLane="best" type="bike_bicycle"/>
    <trip id="bike183" depart="1218.16" from="E23" to="E22" departLane="best" type="bike_bicycle" departSpeed="max"/>
    <trip id="bike184" depart="1224.82" from="E11" to="E8" departLane="best" type="bike_bicycle" departSpeed="max"/>
    <trip id="bike185" depart="1231.48" from="E19" to="E15" departLane="best" type="bike_bicycle" departSpeed="max"/>
    <trip id="bike186" depart="1238.13" from="E11" to="E8" departLane="best" type="bike_bicycle" departSpeed="max"/>
    <trip id="bike187" depart="1244.79" from="E23" to="E17" departLane="best" type="bike_bicycle" departSpeed="max"/>
    <trip id="bike188" depart="1251.45" from="E3" to="E8" departLane="best" type="bike_bicycle"/>
    <trip id="bike189" depart="1258.10" from="E16" to="E5" departLane="best" type="bike_bicycle" departSpeed="max"/>
    <trip id="bike190" depart="1264.76" from="E16" to="E6" departLane="best" type="bike_bicycle" departSpeed="max"/>
    <trip id="bike191" depart="1271.41" from="E19" to="E20" departLane="best" type="bike_bicycle" departSpeed="max"/>
    <trip id="bike192" depart="1278.07" from="E18" to="E0" departLane="best" type="bike_bicycle" departSpeed="max"/>
    <trip id="bike193" depart="1284.73" from="E6" to="E13" departLane="best" type="bike_bicycle"/>
    <trip id="bike194" depart="1291.38" from="E23" to="E14" departLane="best" type="bike_bicycle" departSpeed="max"/>
    <trip id="bike195" depart="1298.04" from="E19" to="E4" departLane="best" type="bike_bicycle" departSpeed="max"/>
    <trip id="bike196" depart="1304.70" from="E23" to="E22" departLane="best" type="bike_bicycle" departSpeed="max"/>
    <trip id="bike197" depart="1311.35" from="E11" to="E13" departLane="best" type="bike_bicycle" departSpeed="max"/>
    <trip id="bike198" depart="1318.01" from="E23" to="E14" departLane="best" type="bike_bicycle" departSpeed="max"/>
    <trip id="bike199" depart="1324.67" from="E21" to="E17" departLane="best" type="bike_bicycle" departSpeed="max"/>
    <trip id="bike200" depart="1331.32" from="E3" to="E14" departLane="best" type="bike_bicycle"/>
    <trip id="bike201" depart="1337.98" from="E23" to="E14" departLane="best" type="bike_bicycle" departSpeed="max"/>
    <trip id="bike202" depart="1344.64" from="E16" to="E10" departLane="best" type="bike_bicycle" departSpeed="max"/>
    <trip id="bike203" depart="1351.29" from="E12" to="E10" departLane="best" type="bike_bicycle" departSpeed="max"/>
    <trip id="bike204" depart="1357.95" from="E9" to="E2" departLane="best" type="bike_bicycle" departSpeed="max"/>
    <trip id="bike205" depart="1364.61" from="E16" to="E10" departLane="best" type="bike_bicycle" departSpeed="max"/>
    <trip id="bike206" depart="1371.26" from="E9" to="E20" departLane="best" type="bike_bicycle" departSpeed="max"/>
    <trip id="bike207" depart="1377.92" from="E23" to="E10" departLane="best" type="bike_bicycle" departSpeed="max"/>
    <trip id="bike208" depart="1384.58" from="E19" to="E17" departLane="best" type="bike_bicycle" departSpeed="max"/>
    <trip id="bike209" depart="1391.23" from="E12" to="E1" departLane="best" type="bike_bicycle" departSpeed="max"/>
    <trip id="bike210" depart="1397.89" from="E9" to="E17" departLane="best" type="bike_bicycle" departSpeed="max"/>
    <trip id="bike211" depart="1404.55" from="E5" to="E15" departLane="best" type="bike_bicycle"/>
    <trip id="bike212" depart="1411.20" from="E21" to="E14" departLane="best" type="bike_bicycle" departSpeed="max"/>
    <trip id="bike213" depart="1417.86" from="E9" to="E10" departLane="best" type="bike_bicycle" departSpeed="max"/>
    <trip id="bike214" depart="1424.52" from="E9" to="E14" departLane="best" type="bike_bicycle" departSpeed="max"/>
    <trip id="bike215" depart="1431.17" from="E3" to="E8" departLane="best" type="bike_bicycle"/>
    <trip id="bike216" depart="1437.83" from="E23" to="E10" departLane="best" type="bike_bicycle" departSpeed="max"/>
    <trip id="bike217" depart="1444.49" from="E12" to="E1" departLane="best" type="bike_bicycle" departSpeed="max"/>
    <trip id="bike218" depart="1451.14" from="E0" to="E17" departLane="best" type="bike_bicycle"/>
    <trip id="bike219" depart="1457.80" from="E21" to="E14" departLane="best" type="bike_bicycle" departSpeed="max"/>
    <trip id="bike220" depart="1464.46" from="E12" to="E22" departLane="best" type="bike_bicycle" departSpeed="max"/>
    <trip id="bike221" depart="1471.11" from="E23" to="E17" departLane="best" type="bike_bicycle" departSpeed="max"/>
    <trip id="bike222" depart="1477.77" from="E23" to="E8" departLane="best" type="bike_bicycle" departSpeed="max"/>
    <trip id="bike223" depart="1484.43" from="E23" to="E8" departLane="best" type="bike_bicycle" departSpeed="max"/>
    <trip id="bike224" depart="1491.08" from="E19" to="E20" departLane="best" type="bike_bicycle" departSpeed="max"/>
    <trip id="bike225" depart="1497.74" from="E5" to="E1" departLane="best" type="bike_bicycle"/>
    <trip id="bike226" depart="1504.40" from="E11" to="E14" departLane="best" type="bike_bicycle" departSpeed="max"/>
    <trip id="bike227" depart="1511.05" from="E16" to="E10" departLane="best" type="bike_bicycle" departSpeed="max"/>
    <trip id="bike228" depart="1517.71" from="E23" to="E22" departLane="best" type="bike_bicycle" departSpeed="max"/>
    <trip id="bike229" depart="1524.37" from="E9" to="E2" departLane="best" type="bike_bicycle" departSpeed="max"/>
    <trip id="bike230" depart="1531.02" from="E19" to="E1" departLane="best" type="bike_bicycle" departSpeed="max"/>
    <trip id="bike231" depart="1537.68" from="E0" to="E17" departLane="best" type="bike_bicycle"/>
    <trip id="bike232" depart="1544.34" from="E16" to="E14" departLane="best" type="bike_bicycle" departSpeed="max"/>
    <trip id="bike233" depart="1550.99" from="E11" to="E8" departLane="best" type="bike_bicycle" departSpeed="max"/>
    <trip id="bike234" depart="1557.65" from="E23" to="E14" departLane="best" type="bike_bicycle" departSpeed="max"/>
    <trip id="bike235" depart="1564.31" from="E0" to="E4" departLane="best" type="bike_bicycle"/>
    <trip id="bike236" depart="1570.96" from="E19" to="E22" departLane="best" type="bike_bicycle" departSpeed="max"/>
    <trip id="bike237" depart="1577.62" from="E21" to="E22" departLane="best" type="bike_bicycle" departSpeed="max"/>
    <trip id="bike238" depart="1584.28" from="E19" to="E10" departLane="best" type="bike_bicycle" departSpeed="max"/>
    <trip id="bike239" depart="1590.93" from="E18" to="E14" departLane="best" type="bike_bicycle" departSpeed="max"/>
    <trip id="bike240" depart="1597.59" from="E23" to="E6" departLane="best" type="bike_bicycle" departSpeed="max"/>
    <trip id="bike241" depart="1604.25" from="E16" to="E22" departLane="best" type="bike_bicycle" departSpeed="max"/>
    <trip id="bike242" depart="1610.90" from="E16" to="E8" departLane="best" type="bike_bicycle" departSpeed="max"/>
    <trip id="bike243" depart="1617.56" from="E5" to="E20" departLane="best" type="bike_bicycle"/>
    <trip id="bike244" depart="1624.22" from="E19" to="E14" departLane="best" type="bike_bicycle" departSpeed="max"/>
    <trip id="bike245" depart="1630.87" from="E16" to="E8" departLane="best" type="bike_bicycle" departSpeed="max"/>
    <trip id="bike246" depart="1637.53" from="E18" to="E2" departLane="best" type="bike_bicycle" departSpeed="max"/>
    <trip id="bike247" depart="1644.19" from="E9" to="E22" departLane="best" type="bike_bicycle" departSpeed="max"/>
    <trip id="bike248" depart="1650.84" from="E21" to="E15" departLane="best" type="bike_bicycle" departSpeed="max"/>
    <trip id="bike249" depart="1657.50" from="E12" to="E15" departLane="best" type="bike_bicycle" departSpeed="max"/>
    <trip id="bike250" depart="1664.16" from="E21" to="E8" departLane="best" type="bike_bicycle" departSpeed="max"/>
    <trip id="bike251" depart="1670.81" from="E19" to="E22" departLane="best" type="bike_bicycle" departSpeed="max"/>
    <trip id="bike252" depart="1677.47" from="E11" to="E8" departLane="best" type="bike_bicycle" departSpeed="max"/>
    <trip id="bike253" depart="1684.13" from="E21" to="E13" departLane="best" type="bike_bicycle" departSpeed="max"/>
    <trip id="bike254" depart="1690.78" from="E11" to="E20" departLane="best" type="bike_bicycle" departSpeed="max"/>
    <trip id="bike255" depart="1697.44" from="E21" to="E10" departLane="best" type="bike_bicycle" departSpeed="max"/>