<?xml version="1.0" encoding="UTF-8"?>

<!-- generated on 2025-07-03 17:54:23.620099 by randomTrips.py v1_23_1+0000-676720d13f6
<configuration>
    <net-file value="osm.net.xml.gz"/>
    <output-trip-file value="osm.bicycle.trips.xml"/>
    <route-file value="osm.bicycle.rou.xml"/>
    <prefix value="bike"/>
    <trip-attributes value="departLane=&quot;best&quot;"/>
    <fringe-start-attributes value="departSpeed=&quot;max&quot;"/>
    <vehicle-class value="bicycle"/>
    <fringe-factor value="2"/>
    <edge-permission value="bicycle"/>
    <via-edge-types value="highway.motorway,highway.motorway_link,highway.trunk_link,highway.primary_link,highway.secondary_link,highway.tertiary_link"/>
    <max-distance value="8000.0"/>
    <remove-loops value="True"/>
    <validate value="True"/>
    <insertion-density value="60.0"/>
</configuration>
-->

<!-- generated on 2025-07-03 17:54:23 by Eclipse SUMO duarouter Version 1.23.1
<duarouterConfiguration xmlns:xsi="http://www.w3.org/2001/XMLSchema-instance" xsi:noNamespaceSchemaLocation="http://sumo.dlr.de/xsd/duarouterConfiguration.xsd">

    <input>
        <net-file value="osm.net.xml.gz"/>
        <route-files value="osm.bicycle.trips.xml"/>
    </input>

    <output>
        <output-file value="osm.bicycle.rou.xml"/>
        <alternatives-output value="NUL"/>
    </output>

    <processing>
        <remove-loops value="true"/>
    </processing>

    <time>
        <begin value="0.0"/>
        <end value="3600.0"/>
    </time>

    <report>
        <no-warnings value="true"/>
        <ignore-errors value="true"/>
        <no-step-log value="true"/>
    </report>

</duarouterConfiguration>
-->

<routes xmlns:xsi="http://www.w3.org/2001/XMLSchema-instance" xsi:noNamespaceSchemaLocation="http://sumo.dlr.de/xsd/routes_file.xsd">
    <vType id="bike_bicycle" vClass="bicycle"/>
    <vehicle id="bike0" type="bike_bicycle" depart="0.00" departLane="best" departSpeed="max">
        <route edges="E16 E5 E6 E13"/>
    </vehicle>
    <vehicle id="bike1" type="bike_bicycle" depart="6.14" departLane="best">
        <route edges="E7 E4 E10"/>
    </vehicle>
    <vehicle id="bike2" type="bike_bicycle" depart="12.29" departLane="best" departSpeed="max">
        <route edges="E12 E7 E2"/>
    </vehicle>
    <vehicle id="bike3" type="bike_bicycle" depart="18.43" departLane="best">
        <route edges="E0 E6 E13"/>
    </vehicle>
    <vehicle id="bike4" type="bike_bicycle" depart="24.58" departLane="best" departSpeed="max">
        <route edges="E23 E20"/>
    </vehicle>
    <vehicle id="bike5" type="bike_bicycle" depart="30.72" departLane="best" departSpeed="max">
        <route edges="E12 E7 E2 E20"/>
    </vehicle>
    <vehicle id="bike6" type="bike_bicycle" depart="36.87" departLane="best">
        <route edges="E5 E2 E22"/>
    </vehicle>
    <vehicle id="bike7" type="bike_bicycle" depart="43.01" departLane="best" departSpeed="max">
        <route edges="E18 E0 E4 E10"/>
    </vehicle>
    <vehicle id="bike8" type="bike_bicycle" depart="49.16" departLane="best" departSpeed="max">
        <route edges="E9 E15"/>
    </vehicle>
    <vehicle id="bike9" type="bike_bicycle" depart="55.30" departLane="best" departSpeed="max">
        <route edges="E18 E0 E2 E20"/>
    </vehicle>
    <vehicle id="bike10" type="bike_bicycle" depart="61.45" departLane="best">
        <route edges="E5 E2 E20"/>
    </vehicle>
    <vehicle id="bike11" type="bike_bicycle" depart="67.59" departLane="best" departSpeed="max">
        <route edges="E23 E3 E1"/>
    </vehicle>
    <vehicle id="bike12" type="bike_bicycle" depart="73.74" departLane="best" departSpeed="max">
        <route edges="E12 E14"/>
    </vehicle>
    <vehicle id="bike13" type="bike_bicycle" depart="79.88" departLane="best" departSpeed="max">
        <route edges="E11 E5 E6 E14"/>
    </vehicle>
    <vehicle id="bike14" type="bike_bicycle" depart="86.02" departLane="best" departSpeed="max">
        <route edges="E23 E3 E1 E15"/>
    </vehicle>
    <vehicle id="bike15" type="bike_bicycle" depart="92.17" departLane="best" departSpeed="max">
        <route edges="E18 E0 E6 E13"/>
    </vehicle>
    <vehicle id="bike16" type="bike_bicycle" depart="98.31" departLane="best" departSpeed="max">
        <route edges="E16 E5 E1 E8"/>
    </vehicle>
    <vehicle id="bike17" type="bike_bicycle" depart="104.46" departLane="best" departSpeed="max">
        <route edges="E23 E20"/>
    </vehicle>
    <vehicle id="bike18" type="bike_bicycle" depart="110.60" departLane="best" departSpeed="max">
        <route edges="E11 E5 E1 E15"/>
    </vehicle>
    <vehicle id="bike19" type="bike_bicycle" depart="116.75" departLane="best" departSpeed="max">
        <route edges="E9 E0 E2 E22"/>
    </vehicle>
    <vehicle id="bike20" type="bike_bicycle" depart="122.89" departLane="best" departSpeed="max">
        <route edges="E21 E22"/>
    </vehicle>
    <vehicle id="bike21" type="bike_bicycle" depart="129.04" departLane="best" departSpeed="max">
        <route edges="E16 E5 E6 E14"/>
    </vehicle>
    <vehicle id="bike22" type="bike_bicycle" depart="135.18" departLane="best" departSpeed="max">
        <route edges="E12 E7 E1 E8"/>
    </vehicle>
    <vehicle id="bike23" type="bike_bicycle" depart="141.33" departLane="best" departSpeed="max">
        <route edges="E23 E3 E1 E15"/>
    </vehicle>
    <vehicle id="bike24" type="bike_bicycle" depart="147.47" departLane="best">
        <route edges="E7 E4 E17"/>
    </vehicle>
    <vehicle id="bike25" type="bike_bicycle" depart="153.62" departLane="best" departSpeed="max">
        <route edges="E16 E5 E6 E13"/>
    </vehicle>
    <vehicle id="bike26" type="bike_bicycle" depart="159.76" departLane="best" departSpeed="max">
        <route edges="E21 E3 E6 E14"/>
    </vehicle>
    <vehicle id="bike27" type="bike_bicycle" depart="165.90" departLane="best" departSpeed="max">
        <route edges="E18 E0 E6 E13"/>
    </vehicle>
    <vehicle id="bike28" type="bike_bicycle" depart="172.05" departLane="best" departSpeed="max">
        <route edges="E9 E0 E2"/>
    </vehicle>
    <vehicle id="bike29" type="bike_bicycle" depart="178.19" departLane="best" departSpeed="max">
        <route edges="E11 E5 E1"/>
    </vehicle>
    <vehicle id="bike30" type="bike_bicycle" depart="184.34" departLane="best" departSpeed="max">
        <route edges="E11 E5 E2 E22"/>
    </vehicle>
    <vehicle id="bike31" type="bike_bicycle" depart="190.48" departLane="best">
        <route edges="E1 E15"/>
    </vehicle>
    <vehicle id="bike32" type="bike_bicycle" depart="196.63" departLane="best" departSpeed="max">
        <route edges="E9 E0 E2"/>
    </vehicle>
    <vehicle id="bike33" type="bike_bicycle" depart="202.77" departLane="best" departSpeed="max">
        <route edges="E9 E0 E6"/>
    </vehicle>
    <vehicle id="bike34" type="bike_bicycle" depart="208.92" departLane="best" departSpeed="max">
        <route edges="E16 E5 E2 E22"/>
    </vehicle>
    <vehicle id="bike35" type="bike_bicycle" depart="215.06" departLane="best" departSpeed="max">
        <route edges="E11 E17"/>
    </vehicle>
    <vehicle id="bike36" type="bike_bicycle" depart="221.21" departLane="best" departSpeed="max">
        <route edges="E19 E7 E1 E8"/>
    </vehicle>
    <vehicle id="bike37" type="bike_bicycle" depart="227.35" departLane="best" departSpeed="max">
        <route edges="E16 E5 E2 E22"/>
    </vehicle>
    <vehicle id="bike38" type="bike_bicycle" depart="233.50" departLane="best" departSpeed="max">
        <route edges="E21 E3 E4 E10"/>
    </vehicle>
    <vehicle id="bike39" type="bike_bicycle" depart="239.64" departLane="best">
        <route edges="E0 E6 E14"/>
    </vehicle>
    <vehicle id="bike40" type="bike_bicycle" depart="245.78" departLane="best" departSpeed="max">
        <route edges="E16 E5 E1"/>
    </vehicle>
    <vehicle id="bike41" type="bike_bicycle" depart="251.93" departLane="best">
        <route edges="E7 E1 E8"/>
    </vehicle>
    <vehicle id="bike42" type="bike_bicycle" depart="258.07" departLane="best" departSpeed="max">
        <route edges="E11 E17"/>
    </vehicle>
    <vehicle id="bike43" type="bike_bicycle" depart="264.22" departLane="best">
        <route edges="E4 E10"/>
    </vehicle>
    <vehicle id="bike44" type="bike_bicycle" depart="270.36" departLane="best" departSpeed="max">
        <route edges="E19 E7 E2 E20"/>
    </vehicle>
    <vehicle id="bike45" type="bike_bicycle" depart="276.51" departLane="best" departSpeed="max">
        <route edges="E16 E5 E6"/>
    </vehicle>
    <vehicle id="bike46" type="bike_bicycle" depart="282.65" departLane="best" departSpeed="max">
        <route edges="E19 E13"/>
    </vehicle>
    <vehicle id="bike47" type="bike_bicycle" depart="288.80" departLane="best" departSpeed="max">
        <route edges="E12 E14"/>
    </vehicle>
    <vehicle id="bike48" type="bike_bicycle" depart="294.94" departLane="best" departSpeed="max">
        <route edges="E9 E0 E2 E22"/>
    </vehicle>
    <vehicle id="bike49" type="bike_bicycle" depart="301.09" departLane="best" departSpeed="max">
        <route edges="E19 E7 E2"/>
    </vehicle>
    <vehicle id="bike50" type="bike_bicycle" depart="307.23" departLane="best" departSpeed="max">
        <route edges="E11 E5 E6 E13"/>
    </vehicle>
    <vehicle id="bike51" type="bike_bicycle" depart="313.38" departLane="best" departSpeed="max">
        <route edges="E18 E0 E2 E20"/>
    </vehicle>
    <vehicle id="bike52" type="bike_bicycle" depart="319.52" departLane="best" departSpeed="max">
        <route edges="E12 E7"/>
    </vehicle>
    <vehicle id="bike53" type="bike_bicycle" depart="325.66" departLane="best" departSpeed="max">
        <route edges="E12 E7 E2 E22"/>
    </vehicle>
    <vehicle id="bike54" type="bike_bicycle" depart="331.81" departLane="best" departSpeed="max">
        <route edges="E12 E7 E4 E10"/>
    </vehicle>
    <vehicle id="bike55" type="bike_bicycle" depart="337.95" departLane="best" departSpeed="max">
        <route edges="E9 E0 E2 E20"/>
    </vehicle>
    <vehicle id="bike56" type="bike_bicycle" depart="344.10" departLane="best" departSpeed="max">
        <route edges="E19 E7 E4"/>
    </vehicle>
    <vehicle id="bike57" type="bike_bicycle" depart="350.24" departLane="best">
        <route edges="E5 E6 E13"/>
    </vehicle>
    <vehicle id="bike58" type="bike_bicycle" depart="356.39" departLane="best" departSpeed="max">
        <route edges="E11 E17"/>
    </vehicle>
    <vehicle id="bike59" type="bike_bicycle" depart="362.53" departLane="best" departSpeed="max">
        <route edges="E19 E7 E4 E17"/>
    </vehicle>
    <vehicle id="bike60" type="bike_bicycle" depart="368.68" departLane="best" departSpeed="max">
        <route edges="E9 E0 E4 E10"/>
    </vehicle>
    <vehicle id="bike61" type="bike_bicycle" depart="374.82" departLane="best" departSpeed="max">
        <route edges="E18 E15"/>
    </vehicle>
    <vehicle id="bike62" type="bike_bicycle" depart="380.97" departLane="best">
        <route edges="E6 E13"/>
    </vehicle>
    <vehicle id="bike63" type="bike_bicycle" depart="387.11" departLane="best" departSpeed="max">
        <route edges="E12 E7 E4 E17"/>
    </vehicle>
    <vehicle id="bike64" type="bike_bicycle" depart="393.26" departLane="best" departSpeed="max">
        <route edges="E19 E14"/>
    </vehicle>
    <vehicle id="bike65" type="bike_bicycle" depart="399.40" departLane="best" departSpeed="max">
        <route edges="E12 E7 E1 E8"/>
    </vehicle>
    <vehicle id="bike66" type="bike_bicycle" depart="405.54" departLane="best" departSpeed="max">
        <route edges="E21 E3 E1"/>
    </vehicle>
    <vehicle id="bike67" type="bike_bicycle" depart="411.69" departLane="best" departSpeed="max">
        <route edges="E9 E0 E6"/>
    </vehicle>
    <vehicle id="bike68" type="bike_bicycle" depart="417.83" departLane="best" departSpeed="max">
        <route edges="E19 E13"/>
    </vehicle>
    <vehicle id="bike69" type="bike_bicycle" depart="423.98" departLane="best" departSpeed="max">
        <route edges="E18 E8"/>
    </vehicle>
    <vehicle id="bike70" type="bike_bicycle" depart="430.12" departLane="best" departSpeed="max">
        <route edges="E19 E7 E4 E17"/>
    </vehicle>
    <vehicle id="bike71" type="bike_bicycle" depart="436.27" departLane="best" departSpeed="max">
        <route edges="E21 E3"/>
    </vehicle>
    <vehicle id="bike72" type="bike_bicycle" depart="442.41" departLane="best" departSpeed="max">
        <route edges="E11 E5 E6 E14"/>
    </vehicle>
    <vehicle id="bike73" type="bike_bicycle" depart="448.56" departLane="best" departSpeed="max">
        <route edges="E9 E0 E2 E20"/>
    </vehicle>
    <vehicle id="bike74" type="bike_bicycle" depart="454.70" departLane="best" departSpeed="max">
        <route edges="E21 E3"/>
    </vehicle>
    <vehicle id="bike75" type="bike_bicycle" depart="460.85" departLane="best" departSpeed="max">
        <route edges="E11 E5 E1 E8"/>
    </vehicle>
    <vehicle id="bike76" type="bike_bicycle" depart="466.99" departLane="best" departSpeed="max">
        <route edges="E21 E22"/>
    </vehicle>
    <vehicle id="bike77" type="bike_bicycle" depart="473.14" departLane="best" departSpeed="max">
        <route edges="E12 E7 E4 E10"/>
    </vehicle>
    <vehicle id="bike78" type="bike_bicycle" depart="479.28" departLane="best" departSpeed="max">
        <route edges="E19 E7 E2 E20"/>
    </vehicle>
    <vehicle id="bike79" type="bike_bicycle" depart="485.42" departLane="best" departSpeed="max">
        <route edges="E12 E7 E1 E15"/>
    </vehicle>
    <vehicle id="bike80" type="bike_bicycle" depart="491.57" departLane="best" departSpeed="max">
        <route edges="E23 E3 E6 E14"/>
    </vehicle>
    <vehicle id="bike81" type="bike_bicycle" depart="497.71" departLane="best" departSpeed="max">
        <route edges="E16 E5 E1 E8"/>
    </vehicle>
    <vehicle id="bike82" type="bike_bicycle" depart="503.86" departLane="best">
        <route edges="E7"/>
    </vehicle>
    <vehicle id="bike83" type="bike_bicycle" depart="510.00" departLane="best" departSpeed="max">
        <route edges="E18 E0 E4 E10"/>
    </vehicle>
    <vehicle id="bike84" type="bike_bicycle" depart="516.15" departLane="best" departSpeed="max">
        <route edges="E21 E3 E1 E8"/>
    </vehicle>
    <vehicle id="bike85" type="bike_bicycle" depart="522.29" departLane="best">
        <route edges="E5 E6 E14"/>
    </vehicle>
    <vehicle id="bike86" type="bike_bicycle" depart="528.44" departLane="best" departSpeed="max">
        <route edges="E23 E3 E1 E8"/>
    </vehicle>
    <vehicle id="bike87" type="bike_bicycle" depart="534.58" departLane="best" departSpeed="max">
        <route edges="E11 E5 E2 E20"/>
    </vehicle>
    <vehicle id="bike88" type="bike_bicycle" depart="540.73" departLane="best" departSpeed="max">
        <route edges="E16 E5 E2 E20"/>
    </vehicle>
    <vehicle id="bike89" type="bike_bicycle" depart="546.87" departLane="best">
        <route edges="E3 E6 E13"/>
    </vehicle>
    <vehicle id="bike90" type="bike_bicycle" depart="553.02" departLane="best" departSpeed="max">
        <route edges="E23 E3 E6 E14"/>
    </vehicle>
    <vehicle id="bike91" type="bike_bicycle" depart="559.16" departLane="best" departSpeed="max">
        <route edges="E19 E7"/>
    </vehicle>
    <vehicle id="bike92" type="bike_bicycle" depart="565.30" departLane="best" departSpeed="max">
        <route edges="E19 E14"/>
    </vehicle>
    <vehicle id="bike93" type="bike_bicycle" depart="571.45" departLane="best">
        <route edges="E0 E4"/>
    </vehicle>
    <vehicle id="bike94" type="bike_bicycle" depart="577.59" departLane="best" departSpeed="max">
        <route edges="E23 E3 E6 E14"/>
    </vehicle>
    <vehicle id="bike95" type="bike_bicycle" depart="583.74" departLane="best">
        <route edges="E7 E2 E20"/>
    </vehicle>
    <vehicle id="bike96" type="bike_bicycle" depart="589.88" departLane="best">
        <route edges="E5 E6"/>
    </vehicle>
    <vehicle id="bike97" type="bike_bicycle" depart="596.03" departLane="best" departSpeed="max">
        <route edges="E12 E7 E4 E10"/>
    </vehicle>
    <vehicle id="bike98" type="bike_bicycle" depart="602.17" departLane="best" departSpeed="max">
        <route edges="E18 E0 E2 E20"/>
    </vehicle>
    <vehicle id="bike99" type="bike_bicycle" depart="608.32" departLane="best" departSpeed="max">
        <route edges="E11 E5 E1 E8"/>
    </vehicle>
    <vehicle id="bike100" type="bike_bicycle" depart="614.46" departLane="best" departSpeed="max">
        <route edges="E16 E5 E1 E8"/>
    </vehicle>
    <vehicle id="bike101" type="bike_bicycle" depart="620.61" departLane="best">
        <route edges="E5 E6"/>
    </vehicle>
    <vehicle id="bike102" type="bike_bicycle" depart="626.75" departLane="best">
        <route edges="E5 E6 E14"/>
    </vehicle>
    <vehicle id="bike103" type="bike_bicycle" depart="632.90" departLane="best">
        <route edges="E4 E10"/>
    </vehicle>
    <vehicle id="bike104" type="bike_bicycle" depart="639.04" departLane="best">
        <route edges="E6"/>
    </vehicle>
    <vehicle id="bike105" type="bike_bicycle" depart="645.18" departLane="best" departSpeed="max">
        <route edges="E19 E14"/>
    </vehicle>
    <vehicle id="bike106" type="bike_bicycle" depart="651.33" departLane="best">
        <route edges="E5 E6 E13"/>
    </vehicle>
    <vehicle id="bike107" type="bike_bicycle" depart="657.47" departLane="best">
        <route edges="E0 E6 E13"/>
    </vehicle>
    <vehicle id="bike108" type="bike_bicycle" depart="663.62" departLane="best" departSpeed="max">
        <route edges="E16 E5 E6"/>
    </vehicle>
    <vehicle id="bike109" type="bike_bicycle" depart="669.76" departLane="best" departSpeed="max">
        <route edges="E9 E0 E6 E14"/>
    </vehicle>
    <vehicle id="bike110" type="bike_bicycle" depart="675.91" departLane="best" departSpeed="max">
        <route edges="E23 E3 E1 E15"/>
    </vehicle>
    <vehicle id="bike111" type="bike_bicycle" depart="682.05" departLane="best" departSpeed="max">
        <route edges="E9 E0 E2"/>
    </vehicle>
    <vehicle id="bike112" type="bike_bicycle" depart="688.20" departLane="best" departSpeed="max">
        <route edges="E9 E0 E4 E10"/>
    </vehicle>
    <vehicle id="bike113" type="bike_bicycle" depart="694.34" departLane="best" departSpeed="max">
        <route edges="E9 E0 E6 E13"/>
    </vehicle>
    <vehicle id="bike114" type="bike_bicycle" depart="700.49" departLane="best" departSpeed="max">
        <route edges="E9 E0 E6 E14"/>
    </vehicle>
    <vehicle id="bike115" type="bike_bicycle" depart="706.63" departLane="best" departSpeed="max">
        <route edges="E11 E17"/>
    </vehicle>
    <vehicle id="bike116" type="bike_bicycle" depart="712.78" departLane="best">
        <route edges="E3 E6 E14"/>
    </vehicle>
    <vehicle id="bike117" type="bike_bicycle" depart="718.92" departLane="best" departSpeed="max">
        <route edges="E18 E0 E2 E20"/>
    </vehicle>
    <vehicle id="bike118" type="bike_bicycle" depart="725.06" departLane="best" departSpeed="max">
        <route edges="E23 E3 E6 E14"/>
    </vehicle>
    <vehicle id="bike119" type="bike_bicycle" depart="731.21" departLane="best" departSpeed="max">
        <route edges="E16 E5 E6"/>
    </vehicle>
    <vehicle id="bike120" type="bike_bicycle" depart="737.35" departLane="best">
        <route edges="E3 E6 E14"/>
    </vehicle>
    <vehicle id="bike121" type="bike_bicycle" depart="743.50" departLane="best" departSpeed="max">
        <route edges="E16 E5 E1 E15"/>
    </vehicle>
    <vehicle id="bike122" type="bike_bicycle" depart="749.64" departLane="best" departSpeed="max">
        <route edges="E18 E0 E6 E14"/>
    </vehicle>
    <vehicle id="bike123" type="bike_bicycle" depart="755.79" departLane="best" departSpeed="max">
        <route edges="E11 E17"/>
    </vehicle>
    <vehicle id="bike124" type="bike_bicycle" depart="761.93" departLane="best" departSpeed="max">
        <route edges="E9 E0 E2 E22"/>
    </vehicle>
    <vehicle id="bike125" type="bike_bicycle" depart="768.08" departLane="best">
        <route edges="E7 E2 E20"/>
    </vehicle>
    <vehicle id="bike126" type="bike_bicycle" depart="774.22" departLane="best" departSpeed="max">
        <route edges="E16 E5 E2 E20"/>
    </vehicle>
    <vehicle id="bike127" type="bike_bicycle" depart="780.37" departLane="best">
        <route edges="E0 E6 E14"/>
    </vehicle>
    <vehicle id="bike128" type="bike_bicycle" depart="786.51" departLane="best" departSpeed="max">
        <route edges="E19 E7 E2 E20"/>
    </vehicle>
    <vehicle id="bike129" type="bike_bicycle" depart="792.66" departLane="best" departSpeed="max">
        <route edges="E23 E3 E4 E17"/>
    </vehicle>
    <vehicle id="bike130" type="bike_bicycle" depart="798.80" departLane="best" departSpeed="max">
        <route edges="E19 E13"/>
    </vehicle>
    <vehicle id="bike131" type="bike_bicycle" depart="804.94" departLane="best" departSpeed="max">
        <route edges="E19 E7"/>
    </vehicle>
    <vehicle id="bike132" type="bike_bicycle" depart="811.09" departLane="best">
        <route edges="E5 E6 E13"/>
    </vehicle>
    <vehicle id="bike133" type="bike_bicycle" depart="817.23" departLane="best" departSpeed="max">
        <route edges="E11 E5 E2"/>
    </vehicle>
    <vehicle id="bike134" type="bike_bicycle" depart="823.38" departLane="best" departSpeed="max">
        <route edges="E23 E3 E1 E15"/>
    </vehicle>
    <vehicle id="bike135" type="bike_bicycle" depart="829.52" departLane="best" departSpeed="max">
        <route edges="E23 E3 E6 E13"/>
    </vehicle>
    <vehicle id="bike136" type="bike_bicycle" depart="835.67" departLane="best" departSpeed="max">
        <route edges="E12 E7 E4 E17"/>
    </vehicle>
    <vehicle id="bike137" type="bike_bicycle" depart="841.81" departLane="best" departSpeed="max">
        <route edges="E18 E0 E2 E22"/>
    </vehicle>
    <vehicle id="bike138" type="bike_bicycle" depart="847.96" departLane="best" departSpeed="max">
        <route edges="E12 E7 E2 E22"/>
    </vehicle>
    <vehicle id="bike139" type="bike_bicycle" depart="854.10" departLane="best" departSpeed="max">
        <route edges="E19 E13"/>
    </vehicle>
    <vehicle id="bike140" type="bike_bicycle" depart="860.25" departLane="best">
        <route edges="E4"/>
    </vehicle>
    <vehicle id="bike141" type="bike_bicycle" depart="866.39" departLane="best" departSpeed="max">
        <route edges="E11 E17"/>
    </vehicle>
    <vehicle id="bike142" type="bike_bicycle" depart="872.54" departLane="best" departSpeed="max">
        <route edges="E12 E7 E1 E8"/>
    </vehicle>
    <vehicle id="bike143" type="bike_bicycle" depart="878.68" departLane="best" departSpeed="max">
        <route edges="E23 E3 E1 E8"/>
    </vehicle>
    <vehicle id="bike144" type="bike_bicycle" depart="884.82" departLane="best" departSpeed="max">
        <route edges="E21 E3 E1 E8"/>
    </vehicle>
    <vehicle id="bike145" type="bike_bicycle" depart="890.97" departLane="best">
        <route edges="E7 E2 E20"/>
    </vehicle>
    <vehicle id="bike146" type="bike_bicycle" depart="897.11" departLane="best">
        <route edges="E5 E2 E20"/>
    </vehicle>
    <vehicle id="bike147" type="bike_bicycle" depart="903.26" departLane="best" departSpeed="max">
        <route edges="E19 E14"/>
    </vehicle>
    <vehicle id="bike148" type="bike_bicycle" depart="909.40" departLane="best" departSpeed="max">
        <route edges="E12 E7 E2 E22"/>
    </vehicle>
    <vehicle id="bike149" type="bike_bicycle" depart="915.55" departLane="best" departSpeed="max">
        <route edges="E23 E3 E6 E14"/>
    </vehicle>
    <vehicle id="bike150" type="bike_bicycle" depart="921.69" departLane="best" departSpeed="max">
        <route edges="E16 E5 E6 E14"/>
    </vehicle>
    <vehicle id="bike151" type="bike_bicycle" depart="927.84" departLane="best" departSpeed="max">
        <route edges="E12 E7 E2 E22"/>
    </vehicle>
    <vehicle id="bike152" type="bike_bicycle" depart="933.98" departLane="best" departSpeed="max">
        <route edges="E23 E3 E1"/>
    </vehicle>
    <vehicle id="bike153" type="bike_bicycle" depart="940.13" departLane="best" departSpeed="max">
        <route edges="E18 E0 E2 E20"/>
    </vehicle>
    <vehicle id="bike154" type="bike_bicycle" depart="946.27" departLane="best" departSpeed="max">
        <route edges="E18 E0 E6 E13"/>
    </vehicle>
    <vehicle id="bike155" type="bike_bicycle" depart="952.42" departLane="best" departSpeed="max">
        <route edges="E19 E7"/>
    </vehicle>
    <vehicle id="bike156" type="bike_bicycle" depart="958.56" departLane="best" departSpeed="max">
        <route edges="E21 E22"/>
    </vehicle>
    <vehicle id="bike157" type="bike_bicycle" depart="964.70" departLane="best" departSpeed="max">
        <route edges="E18 E0"/>
    </vehicle>
    <vehicle id="bike158" type="bike_bicycle" depart="970.85" departLane="best" departSpeed="max">
        <route edges="E18 E0 E4"/>
    </vehicle>
    <vehicle id="bike159" type="bike_bicycle" depart="976.99" departLane="best" departSpeed="max">
        <route edges="E18 E0 E2 E22"/>
    </vehicle>
    <vehicle id="bike160" type="bike_bicycle" depart="983.14" departLane="best" departSpeed="max">
        <route edges="E18 E0 E4 E10"/>
    </vehicle>
    <vehicle id="bike161" type="bike_bicycle" depart="989.28" departLane="best" departSpeed="max">
        <route edges="E19 E7 E4 E10"/>
    </vehicle>
    <vehicle id="bike162" type="bike_bicycle" depart="995.43" departLane="best" departSpeed="max">
        <route edges="E18 E0 E2 E20"/>
    </vehicle>
    <vehicle id="bike163" type="bike_bicycle" depart="1001.57" departLane="best">
        <route edges="E0 E2 E22"/>
    </vehicle>
    <vehicle id="bike164" type="bike_bicycle" depart="1007.72" departLane="best" departSpeed="max">
        <route edges="E11 E17"/>
    </vehicle>
    <vehicle id="bike165" type="bike_bicycle" depart="1013.86" departLane="best">
        <route edges="E1 E15"/>
    </vehicle>
    <vehicle id="bike166" type="bike_bicycle" depart="1020.01" departLane="best" departSpeed="max">
        <route edges="E12 E14"/>
    </vehicle>
    <vehicle id="bike167" type="bike_bicycle" depart="1026.15" departLane="best" departSpeed="max">
        <route edges="E16 E5 E1"/>
    </vehicle>
    <vehicle id="bike168" type="bike_bicycle" depart="1032.30" departLane="best">
        <route edges="E0 E2"/>
    </vehicle>
    <vehicle id="bike169" type="bike_bicycle" depart="1038.44" departLane="best" departSpeed="max">
        <route edges="E9 E15"/>
    </vehicle>
    <vehicle id="bike170" type="bike_bicycle" depart="1044.58" departLane="best" departSpeed="max">
        <route edges="E23 E3 E4"/>
    </vehicle>
    <vehicle id="bike171" type="bike_bicycle" depart="1050.73" departLane="best" departSpeed="max">
        <route edges="E23 E3 E4"/>
    </vehicle>
    <vehicle id="bike172" type="bike_bicycle" depart="1056.87" departLane="best" departSpeed="max">
        <route edges="E9 E0 E6 E13"/>
    </vehicle>
    <vehicle id="bike173" type="bike_bicycle" depart="1063.02" departLane="best">
        <route edges="E0 E4 E10"/>
    </vehicle>
    <vehicle id="bike174" type="bike_bicycle" depart="1069.16" departLane="best" departSpeed="max">
        <route edges="E11 E5 E2 E22"/>
    </vehicle>
    <vehicle id="bike175" type="bike_bicycle" depart="1075.31" departLane="best" departSpeed="max">
        <route edges="E21 E3 E6 E13"/>
    </vehicle>
    <vehicle id="bike176" type="bike_bicycle" depart="1081.45" departLane="best" departSpeed="max">
        <route edges="E23 E3 E4"/>
    </vehicle>
    <vehicle id="bike177" type="bike_bicycle" depart="1087.60" departLane="best" departSpeed="max">
        <route edges="E12 E7 E2 E20"/>
    </vehicle>
    <vehicle id="bike178" type="bike_bicycle" depart="1093.74" departLane="best">
        <route edges="E3 E4 E10"/>
    </vehicle>
    <vehicle id="bike179" type="bike_bicycle" depart="1099.89" departLane="best">
        <route edges="E5 E1 E8"/>
    </vehicle>
    <vehicle id="bike180" type="bike_bicycle" depart="1106.03" departLane="best" departSpeed="max">
        <route edges="E16 E5 E2 E22"/>
    </vehicle>
    <vehicle id="bike181" type="bike_bicycle" depart="1112.18" departLane="best" departSpeed="max">
        <route edges="E9 E15"/>
    </vehicle>
    <vehicle id="bike182" type="bike_bicycle" depart="1118.32" departLane="best">
        <route edges="E3 E1"/>
    </vehicle>
    <vehicle id="bike183" type="bike_bicycle" depart="1124.46" departLane="best" departSpeed="max">
        <route edges="E23 E22"/>
    </vehicle>
    <vehicle id="bike184" type="bike_bicycle" depart="1130.61" departLane="best" departSpeed="max">
        <route edges="E11 E5 E1 E8"/>
    </vehicle>
    <vehicle id="bike185" type="bike_bicycle" depart="1136.75" departLane="best" departSpeed="max">
        <route edges="E19 E7 E1 E15"/>
    </vehicle>
    <vehicle id="bike186" type="bike_bicycle" depart="1142.90" departLane="best" departSpeed="max">
        <route edges="E11 E5 E1 E8"/>
    </vehicle>
    <vehicle id="bike187" type="bike_bicycle" depart="1149.04" departLane="best" departSpeed="max">
        <route edges="E23 E3 E4 E17"/>
    </vehicle>
    <vehicle id="bike188" type="bike_bicycle" depart="1155.19" departLane="best">
        <route edges="E3 E1 E8"/>
    </vehicle>
    <vehicle id="bike189" type="bike_bicycle" depart="1161.33" departLane="best" departSpeed="max">
        <route edges="E16 E5"/>
    </vehicle>
    <vehicle id="bike190" type="bike_bicycle" depart="1167.48" departLane="best" departSpeed="max">
        <route edges="E16 E5 E6"/>
    </vehicle>
    <vehicle id="bike191" type="bike_bicycle" depart="1173.62" departLane="best" departSpeed="max">
        <route edges="E19 E7 E2 E20"/>
    </vehicle>
    <vehicle id="bike192" type="bike_bicycle" depart="1179.77" departLane="best" departSpeed="max">
        <route edges="E18 E0"/>
    </vehicle>