<?xml version="1.0" encoding="UTF-8"?>

<!-- generated on 2025-07-03 17:54:23.484078 by randomTrips.py v1_23_1+0000-676720d13f6
<configuration>
    <net-file value="osm.net.xml.gz"/>
    <output-trip-file value="osm.bicycle.trips.xml"/>
    <route-file value="osm.bicycle.rou.xml"/>
    <prefix value="bike"/>
    <trip-attributes value="departLane=&quot;best&quot;"/>
    <fringe-start-attributes value="departSpeed=&quot;max&quot;"/>
    <vehicle-class value="bicycle"/>
    <fringe-factor value="2"/>
    <edge-permission value="bicycle"/>
    <via-edge-types value="highway.motorway,highway.motorway_link,highway.trunk_link,highway.primary_link,highway.secondary_link,highway.tertiary_link"/>
    <max-distance value="8000.0"/>
    <remove-loops value="True"/>
    <validate value="True"/>
    <insertion-density value="60.0"/>
</configuration>
-->

<routes xmlns:xsi="http://www.w3.org/2001/XMLSchema-instance" xsi:noNamespaceSchemaLocation="http://sumo.dlr.de/xsd/routes_file.xsd">
    <vType id="bike_bicycle" vClass="bicycle"/>
    <trip id="bike0" depart="0.00" from="E16" to="E13" departLane="best" type="bike_bicycle" departSpeed="max"/>
    <trip id="bike1" depart="6.14" from="E7" to="E10" departLane="best" type="bike_bicycle"/>
    <trip id="bike2" depart="12.29" from="E12" to="E2" departLane="best" type="bike_bicycle" departSpeed="max"/>
    <trip id="bike3" depart="18.43" from="E0" to="E13" departLane="best" type="bike_bicycle"/>
    <trip id="bike4" depart="24.58" from="E23" to="E20" departLane="best" type="bike_bicycle" departSpeed="max"/>
    <trip id="bike5" depart="30.72" from="E12" to="E20" departLane="best" type="bike_bicycle" departSpeed="max"/>
    <trip id="bike6" depart="36.87" from="E5" to="E22" departLane="best" type="bike_bicycle"/>
    <trip id="bike7" depart="43.01" from="E18" to="E10" departLane="best" type="bike_bicycle" departSpeed="max"/>
    <trip id="bike8" depart="49.16" from="E9" to="E15" departLane="best" type="bike_bicycle" departSpeed="max"/>
    <trip id="bike9" depart="55.30" from="E18" to="E20" departLane="best" type="bike_bicycle" departSpeed="max"/>
    <trip id="bike10" depart="61.45" from="E5" to="E20" departLane="best" type="bike_bicycle"/>
    <trip id="bike11" depart="67.59" from="E23" to="E1" departLane="best" type="bike_bicycle" departSpeed="max"/>
    <trip id="bike12" depart="73.74" from="E12" to="E14" departLane="best" type="bike_bicycle" departSpeed="max"/>
    <trip id="bike13" depart="79.88" from="E11" to="E14" departLane="best" type="bike_bicycle" departSpeed="max"/>
    <trip id="bike14" depart="86.02" from="E23" to="E15" departLane="best" type="bike_bicycle" departSpeed="max"/>
    <trip id="bike15" depart="92.17" from="E18" to="E13" departLane="best" type="bike_bicycle" departSpeed="max"/>
    <trip id="bike16" depart="98.31" from="E16" to="E8" departLane="best" type="bike_bicycle" departSpeed="max"/>
    <trip id="bike17" depart="104.46" from="E23" to="E20" departLane="best" type="bike_bicycle" departSpeed="max"/>
    <trip id="bike18" depart="110.60" from="E11" to="E15" departLane="best" type="bike_bicycle" departSpeed="max"/>
    <trip id="bike19" depart="116.75" from="E9" to="E22" departLane="best" type="bike_bicycle" departSpeed="max"/>
    <trip id="bike20" depart="122.89" from="E21" to="E22" departLane="best" type="bike_bicycle" departSpeed="max"/>
    <trip id="bike21" depart="129.04" from="E16" to="E14" departLane="best" type="bike_bicycle" departSpeed="max"/>
    <trip id="bike22" depart="135.18" from="E12" to="E8" departLane="best" type="bike_bicycle" departSpeed="max"/>
    <trip id="bike23" depart="141.33" from="E23" to="E15" departLane="best" type="bike_bicycle" departSpeed="max"/>
    <trip id="bike24" depart="147.47" from="E7" to="E17" departLane="best" type="bike_bicycle"/>
    <trip id="bike25" depart="153.62" from="E16" to="E13" departLane="best" type="bike_bicycle" departSpeed="max"/>
    <trip id="bike26" depart="159.76" from="E21" to="E14" departLane="best" type="bike_bicycle" departSpeed="max"/>
    <trip id="bike27" depart="165.90" from="E18" to="E13" departLane="best" type="bike_bicycle" departSpeed="max"/>
    <trip id="bike28" depart="172.05" from="E9" to="E2" departLane="best" type="bike_bicycle" departSpeed="max"/>
    <trip id="bike29" depart="178.19" from="E11" to="E1" departLane="best" type="bike_bicycle" departSpeed="max"/>
    <trip id="bike30" depart="184.34" from="E11" to="E22" departLane="best" type="bike_bicycle" departSpeed="max"/>
    <trip id="bike31" depart="190.48" from="E1" to="E15" departLane="best" type="bike_bicycle"/>
    <trip id="bike32" depart="196.63" from="E9" to="E2" departLane="best" type="bike_bicycle" departSpeed="max"/>
    <trip id="bike33" depart="202.77" from="E9" to="E6" departLane="best" type="bike_bicycle" departSpeed="max"/>
    <trip id="bike34" depart="208.92" from="E16" to="E22" departLane="best" type="bike_bicycle" departSpeed="max"/>
    <trip id="bike35" depart="215.06" from="E11" to="E17" departLane="best" type="bike_bicycle" departSpeed="max"/>
    <trip id="bike36" depart="221.21" from="E19" to="E8" departLane="best" type="bike_bicycle" departSpeed="max"/>
    <trip id="bike37" depart="227.35" from="E16" to="E22" departLane="best" type="bike_bicycle" departSpeed="max"/>
    <trip id="bike38" depart="233.50" from="E21" to="E10" departLane="best" type="bike_bicycle" departSpeed="max"/>
    <trip id="bike39" depart="239.64" from="E0" to="E14" departLane="best" type="bike_bicycle"/>
    <trip id="bike40" depart="245.78" from="E16" to="E1" departLane="best" type="bike_bicycle" departSpeed="max"/>
    <trip id="bike41" depart="251.93" from="E7" to="E8" departLane="best" type="bike_bicycle"/>
    <trip id="bike42" depart="258.07" from="E11" to="E17" departLane="best" type="bike_bicycle" departSpeed="max"/>
    <trip id="bike43" depart="264.22" from="E4" to="E10" departLane="best" type="bike_bicycle"/>
    <trip id="bike44" depart="270.36" from="E19" to="E20" departLane="best" type="bike_bicycle" departSpeed="max"/>
    <trip id="bike45" depart="276.51" from="E16" to="E6" departLane="best" type="bike_bicycle" departSpeed="max"/>
    <trip id="bike46" depart="282.65" from="E19" to="E13" departLane="best" type="bike_bicycle" departSpeed="max"/>
    <trip id="bike47" depart="288.80" from="E12" to="E14" departLane="best" type="bike_bicycle" departSpeed="max"/>
    <trip id="bike48" depart="294.94" from="E9" to="E22" departLane="best" type="bike_bicycle" departSpeed="max"/>
    <trip id="bike49" depart="301.09" from="E19" to="E2" departLane="best" type="bike_bicycle" departSpeed="max"/>
    <trip id="bike50" depart="307.23" from="E11" to="E13" departLane="best" type="bike_bicycle" departSpeed="max"/>
    <trip id="bike51" depart="313.38" from="E18" to="E20" departLane="best" type="bike_bicycle" departSpeed="max"/>
    <trip id="bike52" depart="319.52" from="E12" to="E7" departLane="best" type="bike_bicycle" departSpeed="max"/>
    <trip id="bike53" depart="325.66" from="E12" to="E22" departLane="best" type="bike_bicycle" departSpeed="max"/>
    <trip id="bike54" depart="331.81" from="E12" to="E10" departLane="best" type="bike_bicycle" departSpeed="max"/>
    <trip id="bike55" depart="337.95" from="E9" to="E20" departLane="best" type="bike_bicycle" departSpeed="max"/>
    <trip id="bike56" depart="344.10" from="E19" to="E4" departLane="best" type="bike_bicycle" departSpeed="max"/>
    <trip id="bike57" depart="350.24" from="E5" to="E13" departLane="best" type="bike_bicycle"/>
    <trip id="bike58" depart="356.39" from="E11" to="E17" departLane="best" type="bike_bicycle" departSpeed="max"/>
    <trip id="bike59" depart="362.53" from="E19" to="E17" departLane="best" type="bike_bicycle" departSpeed="max"/>
    <trip id="bike60" depart="368.68" from="E9" to="E10" departLane="best" type="bike_bicycle" departSpeed="max"/>
    <trip id="bike61" depart="374.82" from="E18" to="E15" departLane="best" type="bike_bicycle" departSpeed="max"/>
    <trip id="bike62" depart="380.97" from="E6" to="E13" departLane="best" type="bike_bicycle"/>
    <trip id="bike63" depart="387.11" from="E12" to="E17" departLane="best" type="bike_bicycle" departSpeed="max"/>
    <trip id="bike64" depart="393.26" from="E19" to="E14" departLane="best" type="bike_bicycle" departSpeed="max"/>
    <trip id="bike65" depart="399.40" from="E12" to="E8" departLane="best" type="bike_bicycle" departSpeed="max"/>
    <trip id="bike66" depart="405.54" from="E21" to="E1" departLane="best" type="bike_bicycle" departSpeed="max"/>
    <trip id="bike67" depart="411.69" from="E9" to="E6" departLane="best" type="bike_bicycle" departSpeed="max"/>
    <trip id="bike68" depart="417.83" from="E19" to="E13" departLane="best" type="bike_bicycle" departSpeed="max"/>
    <trip id="bike69" depart="423.98" from="E18" to="E8" departLane="best" type="bike_bicycle" departSpeed="max"/>
    <trip id="bike70" depart="430.12" from="E19" to="E17" departLane="best" type="bike_bicycle" departSpeed="max"/>
    <trip id="bike71" depart="436.27" from="E21" to="E3" departLane="best" type="bike_bicycle" departSpeed="max"/>
    <trip id="bike72" depart="442.41" from="E11" to="E14" departLane="best" type="bike_bicycle" departSpeed="max"/>
    <trip id="bike73" depart="448.56" from="E9" to="E20" departLane="best" type="bike_bicycle" departSpeed="max"/>
    <trip id="bike74" depart="454.70" from="E21" to="E3" departLane="best" type="bike_bicycle" departSpeed="max"/>
    <trip id="bike75" depart="460.85" from="E11" to="E8" departLane="best" type="bike_bicycle" departSpeed="max"/>
    <trip id="bike76" depart="466.99" from="E21" to="E22" departLane="best" type="bike_bicycle" departSpeed="max"/>
    <trip id="bike77" depart="473.14" from="E12" to="E10" departLane="best" type="bike_bicycle" departSpeed="max"/>
    <trip id="bike78" depart="479.28" from="E19" to="E20" departLane="best" type="bike_bicycle" departSpeed="max"/>
    <trip id="bike79" depart="485.42" from="E12" to="E15" departLane="best" type="bike_bicycle" departSpeed="max"/>
    <trip id="bike80" depart="491.57" from="E23" to="E14" departLane="best" type="bike_bicycle" departSpeed="max"/>
    <trip id="bike81" depart="497.71" from="E16" to="E8" departLane="best" type="bike_bicycle" departSpeed="max"/>
    <trip id="bike82" depart="503.86" from="E7" to="E7" departLane="best" type="bike_bicycle"/>
    <trip id="bike83" depart="510.00" from="E18" to="E10" departLane="best" type="bike_bicycle" departSpeed="max"/>
    <trip id="bike84" depart="516.15" from="E21" to="E8" departLane="best" type="bike_bicycle" departSpeed="max"/>
    <trip id="bike85" depart="522.29" from="E5" to="E14" departLane="best" type="bike_bicycle"/>
    <trip id="bike86" depart="528.44" from="E23" to="E8" departLane="best" type="bike_bicycle" departSpeed="max"/>
    <trip id="bike87" depart="534.58" from="E11" to="E20" departLane="best" type="bike_bicycle" departSpeed="max"/>
    <trip id="bike88" depart="540.73" from="E16" to="E20" departLane="best" type="bike_bicycle" departSpeed="max"/>
    <trip id="bike89" depart="546.87" from="E3" to="E13" departLane="best" type="bike_bicycle"/>
    <trip id="bike90" depart="553.02" from="E23" to="E14" departLane="best" type="bike_bicycle" departSpeed="max"/>
    <trip id="bike91" depart="559.16" from="E19" to="E7" departLane="best" type="bike_bicycle" departSpeed="max"/>
    <trip id="bike92" depart="565.30" from="E19" to="E14" departLane="best" type="bike_bicycle" departSpeed="max"/>
    <trip id="bike93" depart="571.45" from="E0" to="E4" departLane="best" type="bike_bicycle"/>
    <trip id="bike94" depart="577.59" from="E23" to="E14" departLane="best" type="bike_bicycle" departSpeed="max"/>
    <trip id="bike95" depart="583.74" from="E7" to="E20" departLane="best" type="bike_bicycle"/>
    <trip id="bike96" depart="589.88" from="E5" to="E6" departLane="best" type="bike_bicycle"/>
    <trip id="bike97" depart="596.03" from="E12" to="E10" departLane="best" type="bike_bicycle" departSpeed="max"/>
    <trip id="bike98" depart="602.17" from="E18" to="E20" departLane="best" type="bike_bicycle" departSpeed="max"/>
    <trip id="bike99" depart="608.32" from="E11" to="E8" departLane="best" type="bike_bicycle" departSpeed="max"/>
    <trip id="bike100" depart="614.46" from="E16" to="E8" departLane="best" type="bike_bicycle" departSpeed="max"/>
    <trip id="bike101" depart="620.61" from="E5" to="E6" departLane="best" type="bike_bicycle"/>
    <trip id="bike102" depart="626.75" from="E5" to="E14" departLane="best" type="bike_bicycle"/>
    <trip id="bike103" depart="632.90" from="E4" to="E10" departLane="best" type="bike_bicycle"/>
    <trip id="bike104" depart="639.04" from="E6" to="E6" departLane="best" type="bike_bicycle"/>
    <trip id="bike105" depart="645.18" from="E19" to="E14" departLane="best" type="bike_bicycle" departSpeed="max"/>
    <trip id="bike106" depart="651.33" from="E5" to="E13" departLane="best" type="bike_bicycle"/>
    <trip id="bike107" depart="657.47" from="E0" to="E13" departLane="best" type="bike_bicycle"/>
    <trip id="bike108" depart="663.62" from="E16" to="E6" departLane="best" type="bike_bicycle" departSpeed="max"/>
    <trip id="bike109" depart="669.76" from="E9" to="E14" departLane="best" type="bike_bicycle" departSpeed="max"/>
    <trip id="bike110" depart="675.91" from="E23" to="E15" departLane="best" type="bike_bicycle" departSpeed="max"/>
    <trip id="bike111" depart="682.05" from="E9" to="E2" departLane="best" type="bike_bicycle" departSpeed="max"/>
    <trip id="bike112" depart="688.20" from="E9" to="E10" departLane="best" type="bike_bicycle" departSpeed="max"/>
    <trip id="bike113" depart="694.34" from="E9" to="E13" departLane="best" type="bike_bicycle" departSpeed="max"/>
    <trip id="bike114" depart="700.49" from="E9" to="E14" departLane="best" type="bike_bicycle" departSpeed="max"/>
    <trip id="bike115" depart="706.63" from="E11" to="E17" departLane="best" type="bike_bicycle" departSpeed="max"/>
    <trip id="bike116" depart="712.78" from="E3" to="E14" departLane="best" type="bike_bicycle"/>
    <trip id="bike117" depart="718.92" from="E18" to="E20" departLane="best" type="bike_bicycle" departSpeed="max"/>
    <trip id="bike118" depart="725.06" from="E23" to="E14" departLane="best" type="bike_bicycle" departSpeed="max"/>
    <trip id="bike119" depart="731.21" from="E16" to="E6" departLane="best" type="bike_bicycle" departSpeed="max"/>
    <trip id="bike120" depart="737.35" from="E3" to="E14" departLane="best" type="bike_bicycle"/>
    <trip id="bike121" depart="743.50" from="E16" to="E15" departLane="best" type="bike_bicycle" departSpeed="max"/>
    <trip id="bike122" depart="749.64" from="E18" to="E14" departLane="best" type="bike_bicycle" departSpeed="max"/>
    <trip id="bike123" depart="755.79" from="E11" to="E17" departLane="best" type="bike_bicycle" departSpeed="max"/>
    <trip id="bike124" depart="761.93" from="E9" to="E22" departLane="best" type="bike_bicycle" departSpeed="max"/>
    <trip id="bike125" depart="768.08" from="E7" to="E20" departLane="best" type="bike_bicycle"/>
    <trip id="bike126" depart="774.22" from="E16" to="E20" departLane="best" type="bike_bicycle" departSpeed="max"/>
    <trip id="bike127" depart="780.37" from="E0" to="E14" departLane="best" type="bike_bicycle"/>
    <trip id="bike128" depart="786.51" from="E19" to="E20" departLane="best" type="bike_bicycle" departSpeed="max"/>
    <trip id="bike129" depart="792.66" from="E23" to="E17" departLane="best" type="bike_bicycle" departSpeed="max"/>
    <trip id="bike130" depart="798.80" from="E19" to="E13" departLane="best" type="bike_bicycle" departSpeed="max"/>
    <trip id="bike131" depart="804.94" from="E19" to="E7" departLane="best" type="bike_bicycle" departSpeed="max"/>
    <trip id="bike132" depart="811.09" from="E5" to="E13" departLane="best" type="bike_bicycle"/>
    <trip id="bike133" depart="817.23" from="E11" to="E2" departLane="best" type="bike_bicycle" departSpeed="max"/>
    <trip id="bike134" depart="823.38" from="E23" to="E15" departLane="best" type="bike_bicycle" departSpeed="max"/>
    <trip id="bike135" depart="829.52" from="E23" to="E13" departLane="best" type="bike_bicycle" departSpeed="max"/>
    <trip id="bike136" depart="835.67" from="E12" to="E17" departLane="best" type="bike_bicycle" departSpeed="max"/>
    <trip id="bike137" depart="841.81" from="E18" to="E22" departLane="best" type="bike_bicycle" departSpeed="max"/>
    <trip id="bike138" depart="847.96" from="E12" to="E22" departLane="best" type="bike_bicycle" departSpeed="max"/>
    <trip id="bike139" depart="854.10" from="E19" to="E13" departLane="best" type="bike_bicycle" departSpeed="max"/>
    <trip id="bike140" depart="860.25" from="E4" to="E4" departLane="best" type="bike_bicycle"/>
    <trip id="bike141" depart="866.39" from="E11" to="E17" departLane="best" type="bike_bicycle" departSpeed="max"/>
    <trip id="bike142" depart="872.54" from="E12" to="E8" departLane="best" type="bike_bicycle" departSpeed="max"/>
    <trip id="bike143" depart="878.68" from="E23" to="E8" departLane="best" type="bike_bicycle" departSpeed="max"/>
    <trip id="bike144" depart="884.82" from="E21" to="E8" departLane="best" type="bike_bicycle" departSpeed="max"/>
    <trip id="bike145" depart="890.97" from="E7" to="E20" departLane="best" type="bike_bicycle"/>
    <trip id="bike146" depart="897.11" from="E5" to="E20" departLane="best" type="bike_bicycle"/>
    <trip id="bike147" depart="903.26" from="E19" to="E14" departLane="best" type="bike_bicycle" departSpeed="max"/>
    <trip id="bike148" depart="909.40" from="E12" to="E22" departLane="best" type="bike_bicycle" departSpeed="max"/>
    <trip id="bike149" depart="915.55" from="E23" to="E14" departLane="best" type="bike_bicycle" departSpeed="max"/>
    <trip id="bike150" depart="921.69" from="E16" to="E14" departLane="best" type="bike_bicycle" departSpeed="max"/>
    <trip id="bike151" depart="927.84" from="E12" to="E22" departLane="best" type="bike_bicycle" departSpeed="max"/>
    <trip id="bike152" depart="933.98" from="E23" to="E1" departLane="best" type="bike_bicycle" departSpeed="max"/>
    <trip id="bike153" depart="940.13" from="E18" to="E20" departLane="best" type="bike_bicycle" departSpeed="max"/>
    <trip id="bike154" depart="946.27" from="E18" to="E13" departLane="best" type="bike_bicycle" departSpeed="max"/>
    <trip id="bike155" depart="952.42" from="E19" to="E7" departLane="best" type="bike_bicycle" departSpeed="max"/>
    <trip id="bike156" depart="958.56" from="E21" to="E22" departLane="best" type="bike_bicycle" departSpeed="max"/>
    <trip id="bike157" depart="964.70" from="E18" to="E0" departLane="best" type="bike_bicycle" departSpeed="max"/>
    <trip id="bike158" depart="970.85" from="E18" to="E4" departLane="best" type="bike_bicycle" departSpeed="max"/>
    <trip id="bike159" depart="976.99" from="E18" to="E22" departLane="best" type="bike_bicycle" departSpeed="max"/>
    <trip id="bike160" depart="983.14" from="E18" to="E10" departLane="best" type="bike_bicycle" departSpeed="max"/>
    <trip id="bike161" depart="989.28" from="E19" to="E10" departLane="best" type="bike_bicycle" departSpeed="max"/>
    <trip id="bike162" depart="995.43" from="E18" to="E20" departLane="best" type="bike_bicycle" departSpeed="max"/>
    <trip id="bike163" depart="1001.57" from="E0" to="E22" departLane="best" type="bike_bicycle"/>
    <trip id="bike164" depart="1007.72" from="E11" to="E17" departLane="best" type="bike_bicycle" departSpeed="max"/>
    <trip id="bike165" depart="1013.86" from="E1" to="E15" departLane="best" type="bike_bicycle"/>
    <trip id="bike166" depart="1020.01" from="E12" to="E14" departLane="best" type="bike_bicycle" departSpeed="max"/>
    <trip id="bike167" depart="1026.15" from="E16" to="E1" departLane="best" type="bike_bicycle" departSpeed="max"/>
    <trip id="bike168" depart="1032.30" from="E0" to="E2" departLane="best" type="bike_bicycle"/>
    <trip id="bike169" depart="1038.44" from="E9" to="E15" departLane="best" type="bike_bicycle" departSpeed="max"/>
    <trip id="bike170" depart="1044.58" from="E23" to="E4" departLane="best" type="bike_bicycle" departSpeed="max"/>
    <trip id="bike171" depart="1050.73" from="E23" to="E4" departLane="best" type="bike_bicycle" departSpeed="max"/>
    <trip id="bike172" depart="1056.87" from="E9" to="E13" departLane="best" type="bike_bicycle" departSpeed="max"/>
    <trip id="bike173" depart="1063.02" from="E0" to="E10" departLane="best" type="bike_bicycle"/>
    <trip id="bike174" depart="1069.16" from="E11" to="E22" departLane="best" type="bike_bicycle" departSpeed="max"/>
    <trip id="bike175" depart="1075.31" from="E21" to="E13" departLane="best" type="bike_bicycle" departSpeed="max"/>
    <trip id="bike176" depart="1081.45" from="E23" to="E4" departLane="best" type="bike_bicycle" departSpeed="max"/>
    <trip id="bike177" depart="1087.60" from="E12" to="E20" departLane="best" type="bike_bicycle" departSpeed="max"/>
    <trip id="bike178" depart="1093.74" from="E3" to="E10" departLane="best" type="bike_bicycle"/>
    <trip id="bike179" depart="1099.89" from="E5" to="E8" departLane="best" type="bike_bicycle"/>
    <trip id="bike180" depart="1106.03" from="E16" to="E22" departLane="best" type="bike_bicycle" departSpeed="max"/>
    <trip id="bike181" depart="1112.18" from="E9" to="E15" departLane="best" type="bike_bicycle" departSpeed="max"/>
    <trip id="bike182" depart="1118.32" from="E3" to="E1" departLane="best" type="bike_bicycle"/>
    <trip id="bike183" depart="1124.46" from="E23" to="E22" departLane="best" type="bike_bicycle" departSpeed="max"/>
    <trip id="bike184" depart="1130.61" from="E11" to="E8" departLane="best" type="bike_bicycle" departSpeed="max"/>
    <trip id="bike185" depart="1136.75" from="E19" to="E15" departLane="best" type="bike_bicycle" departSpeed="max"/>
    <trip id="bike186" depart="1142.90" from="E11" to="E8" departLane="best" type="bike_bicycle" departSpeed="max"/>
    <trip id="bike187" depart="1149.04" from="E23" to="E17" departLane="best" type="bike_bicycle" departSpeed="max"/>
    <trip id="bike188" depart="1155.19" from="E3" to="E8" departLane="best" type="bike_bicycle"/>
    <trip id="bike189" depart="1161.33" from="E16" to="E5" departLane="best" type="bike_bicycle" departSpeed="max"/>
    <trip id="bike190" depart="1167.48" from="E16" to="E6" departLane="best" type="bike_bicycle" departSpeed="max"/>
    <trip id="bike191" depart="1173.62" from="E19" to="E20" departLane="best" type="bike_bicycle" departSpeed="max"/>
    <trip id="bike192" depart="1179.77" from="E18" to="E0" departLane="best" type="bike_bicycle" departSpeed="max"/>
    <trip id="bike193" depart="1185.91" from="E6" to="E13" departLane="best" type="bike_bicycle"/>
    <trip id="bike194" depart="1192.06" from="E23" to="E14" departLane="best" type="bike_bicycle" departSpeed="max"/>
    <trip id="bike195" depart="1198.20" from="E19" to="E4" departLane="best" type="bike_bicycle" departSpeed="max"/>
    <trip id="bike196" depart="1204.34" from="E23" to="E22" departLane="best" type="bike_bicycle" departSpeed="max"/>
    <trip id="bike197" depart="1210.49" from="E11" to="E13" departLane="best" type="bike_bicycle" departSpeed="max"/>
    <trip id="bike198" depart="1216.63" from="E23" to="E14" departLane="best" type="bike_bicycle" departSpeed="max"/>
    <trip id="bike199" depart="1222.78" from="E21" to="E17" departLane="best" type="bike_bicycle" departSpeed="max"/>
    <trip id="bike200" depart="1228.92" from="E3" to="E14" departLane="best" type="bike_bicycle"/>
    <trip id="bike201" depart="1235.07" from="E23" to="E14" departLane="best" type="bike_bicycle" departSpeed="max"/>
    <trip id="bike202" depart="1241.21" from="E16" to="E10" departLane="best" type="bike_bicycle" departSpeed="max"/>
    <trip id="bike203" depart="1247.36" from="E12" to="E10" departLane="best" type="bike_bicycle" departSpeed="max"/>
    <trip id="bike204" depart="1253.50" from="E9" to="E2" departLane="best" type="bike_bicycle" departSpeed="max"/>
    <trip id="bike205" depart="1259.65" from="E16" to="E10" departLane="best" type="bike_bicycle" departSpeed="max"/>
    <trip id="bike206" depart="1265.79" from="E9" to="E20" departLane="best" type="bike_bicycle" departSpeed="max"/>
    <trip id="bike207" depart="1271.93" from="E23" to="E10" departLane="best" type="bike_bicycle" departSpeed="max"/>
    <trip id="bike208" depart="1278.08" from="E19" to="E17" departLane="best" type="bike_bicycle" departSpeed="max"/>
    <trip id="bike209" depart="1284.22" from="E12" to="E1" departLane="best" type="bike_bicycle" departSpeed="max"/>
    <trip id="bike210" depart="1290.37" from="E9" to="E17" departLane="best" type="bike_bicycle" departSpeed="max"/>
    <trip id="bike211" depart="1296.51" from="E5" to="E15" departLane="best" type="bike_bicycle"/>
    <trip id="bike212" depart="1302.66" from="E21" to="E14" departLane="best" type="bike_bicycle" departSpeed="max"/>
    <trip id="bike213" depart="1308.80" from="E9" to="E10" departLane="best" type="bike_bicycle" departSpeed="max"/>
    <trip id="bike214" depart="1314.95" from="E9" to="E14" departLane="best" type="bike_bicycle" departSpeed="max"/>
    <trip id="bike215" depart="1321.09" from="E3" to="E8" departLane="best" type="bike_bicycle"/>
    <trip id="bike216" depart="1327.24" from="E23" to="E10" departLane="best" type="bike_bicycle" departSpeed="max"/>
    <trip id="bike217" depart="1333.38" from="E12" to="E1" departLane="best" type="bike_bicycle" departSpeed="max"/>
    <trip id="bike218" depart="1339.53" from="E0" to="E17" departLane="best" type="bike_bicycle"/>
    <trip id="bike219" depart="1345.67" from="E21" to="E14" departLane="best" type="bike_bicycle" departSpeed="max"/>
    <trip id="bike220" depart="1351.81" from="E12" to="E22" departLane="best" type="bike_bicycle" departSpeed="max"/>
    <trip id="bike221" depart="1357.96" from="E23" to="E17" departLane="best" type="bike_bicycle" departSpeed="max"/>
    <trip id="bike222" depart="1364.10" from="E23" to="E8" departLane="best" type="bike_bicycle" departSpeed="max"/>
    <trip id="bike223" depart="1370.25" from="E23" to="E8" departLane="best" type="bike_bicycle" departSpeed="max"/>
    <trip id="bike224" depart="1376.39" from="E19" to="E20" departLane="best" type="bike_bicycle" departSpeed="max"/>
    <trip id="bike225" depart="1382.54" from="E5" to="E1" departLane="best" type="bike_bicycle"/>
    <trip id="bike226" depart="1388.68" from="E11" to="E14" departLane="best" type="bike_bicycle" departSpeed="max"/>
    <trip id="bike227" depart="1394.83" from="E16" to="E10" departLane="best" type="bike_bicycle" departSpeed="max"/>
    <trip id="bike228" depart="1400.97" from="E23" to="E22" departLane="best" type="bike_bicycle" departSpeed="max"/>
    <trip id="bike229" depart="1407.12" from="E9" to="E2" departLane="best" type="bike_bicycle" departSpeed="max"/>
    <trip id="bike230" depart="1413.26" from="E19" to="E1" departLane="best" type="bike_bicycle" departSpeed="max"/>
    <trip id="bike231" depart="1419.41" from="E0" to="E17" departLane="best" type="bike_bicycle"/>
    <trip id="bike232" depart="1425.55" from="E16" to="E14" departLane="best" type="bike_bicycle" departSpeed="max"/>
    <trip id="bike233" depart="1431.69" from="E11" to="E8" departLane="best" type="bike_bicycle" departSpeed="max"/>
    <trip id="bike234" depart="1437.84" from="E23" to="E14" departLane="best" type="bike_bicycle" departSpeed="max"/>
    <trip id="bike235" depart="1443.98" from="E0" to="E4" departLane="best" type="bike_bicycle"/>
    <trip id="bike236" depart="1450.13" from="E19" to="E22" departLane="best" type="bike_bicycle" departSpeed="max"/>
    <trip id="bike237" depart="1456.27" from="E21" to="E22" departLane="best" type="bike_bicycle" departSpeed="max"/>
    <trip id="bike238" depart="1462.42" from="E19" to="E10" departLane="best" type="bike_bicycle" departSpeed="max"/>
    <trip id="bike239" depart="1468.56" from="E18" to="E14" departLane="best" type="bike_bicycle" departSpeed="max"/>
    <trip id="bike240" depart="1474.71" from="E23" to="E6" departLane="best" type="bike_bicycle" departSpeed="max"/>
    <trip id="bike241" depart="1480.85" from="E16" to="E22" departLane="best" type="bike_bicycle" departSpeed="max"/>
    <trip id="bike242" depart="1487.00" from="E16" to="E8" departLane="best" type="bike_bicycle" departSpeed="max"/>
    <trip id="bike243" depart="1493.14" from="E5" to="E20" departLane="best" type="bike_bicycle"/>
    <trip id="bike244" depart="1499.29" from="E19" to="E14" departLane="best" type="bike_bicycle" departSpeed="max"/>
    <trip id="bike245" depart="1505.43" from="E16" to="E8" departLane="best" type="bike_bicycle" departSpeed="max"/>
    <trip id="bike246" depart="1511.57" from="E18" to="E2" departLane="best" type="bike_bicycle" departSpeed="max"/>
    <trip id="bike247" depart="1517.72" from="E9" to="E22" departLane="best" type="bike_bicycle" departSpeed="max"/>
    <trip id="bike248" depart="1523.86" from="E21" to="E15" departLane="best" type="bike_bicycle" departSpeed="max"/>
    <trip id="bike249" depart="1530.01" from="E12" to="E15" departLane="best" type="bike_bicycle" departSpeed="max"/>
    <trip id="bike250" depart="1536.15" from="E21" to="E8" departLane="best" type="bike_bicycle" departSpeed="max"/>
    <trip id="bike251" depart="1542.30" from="E19" to="E22" departLane="best" type="bike_bicycle" departSpeed="max"/>
    <trip id="bike252" depart="1548.44" from="E11" to="E8" departLane="best" type="bike_bicycle" departSpeed="max"/>
    <trip id="bike253" depart="1554.59" from="E21" to="E13" departLane="best" type="bike_bicycle" departSpeed="max"/>
    <trip id="bike254" depart="1560.73" from="E11" to="E20" departLane="best" type="bike_bicycle" departSpeed="max"/>
    <trip id="bike255" depart="1566.88" from="E21" to="E10" departLane="best" type="bike_bicycle" departSpeed="max"/>