<?xml version="1.0" encoding="UTF-8"?>

<!-- generated on 2025-07-12 21:49:11.475970 by randomTrips.py v1_23_1+0000-676720d13f6
<configuration>
    <net-file value="osm.net.xml.gz"/>
    <output-trip-file value="osm.motorcycle.trips.xml"/>
    <route-file value="osm.motorcycle.rou.xml"/>
    <prefix value="motorcycle"/>
    <trip-attributes value="departLane=&quot;best&quot;"/>
    <fringe-start-attributes value="departSpeed=&quot;max&quot;"/>
    <vehicle-class value="motorcycle"/>
    <fringe-factor value="2"/>
    <edge-permission value="motorcycle"/>
    <via-edge-types value="highway.motorway,highway.motorway_link,highway.trunk_link,highway.primary_link,highway.secondary_link,highway.tertiary_link"/>
    <max-distance value="1200.0"/>
    <remove-loops value="True"/>
    <validate value="True"/>
    <insertion-density value="40.0"/>
</configuration>
-->

<routes xmlns:xsi="http://www.w3.org/2001/XMLSchema-instance" xsi:noNamespaceSchemaLocation="http://sumo.dlr.de/xsd/routes_file.xsd">
    <vType id="motorcycle_motorcycle" vClass="motorcycle"/>
    <trip id="motorcycle0" depart="0.00" from="E16" to="E13" departLane="best" type="motorcycle_motorcycle" departSpeed="max"/>
    <trip id="motorcycle1" depart="10.09" from="E7" to="E10" departLane="best" type="motorcycle_motorcycle"/>
    <trip id="motorcycle2" depart="20.18" from="E12" to="E2" departLane="best" type="motorcycle_motorcycle" departSpeed="max"/>
    <trip id="motorcycle3" depart="30.27" from="E0" to="E13" departLane="best" type="motorcycle_motorcycle"/>
    <trip id="motorcycle4" depart="40.36" from="E23" to="E20" departLane="best" type="motorcycle_motorcycle" departSpeed="max"/>
    <trip id="motorcycle5" depart="50.45" from="E12" to="E20" departLane="best" type="motorcycle_motorcycle" departSpeed="max"/>
    <trip id="motorcycle6" depart="60.54" from="E5" to="E22" departLane="best" type="motorcycle_motorcycle"/>
    <trip id="motorcycle7" depart="70.63" from="E18" to="E10" departLane="best" type="motorcycle_motorcycle" departSpeed="max"/>
    <trip id="motorcycle8" depart="80.72" from="E9" to="E15" departLane="best" type="motorcycle_motorcycle" departSpeed="max"/>
    <trip id="motorcycle9" depart="90.81" from="E18" to="E20" departLane="best" type="motorcycle_motorcycle" departSpeed="max"/>
    <trip id="motorcycle10" depart="100.90" from="E5" to="E20" departLane="best" type="motorcycle_motorcycle"/>
    <trip id="motorcycle11" depart="110.99" from="E23" to="E1" departLane="best" type="motorcycle_motorcycle" departSpeed="max"/>
    <trip id="motorcycle12" depart="121.08" from="E12" to="E14" departLane="best" type="motorcycle_motorcycle" departSpeed="max"/>
    <trip id="motorcycle13" depart="131.16" from="E11" to="E14" departLane="best" type="motorcycle_motorcycle" departSpeed="max"/>
    <trip id="motorcycle14" depart="141.25" from="E23" to="E15" departLane="best" type="motorcycle_motorcycle" departSpeed="max"/>
    <trip id="motorcycle15" depart="151.34" from="E18" to="E13" departLane="best" type="motorcycle_motorcycle" departSpeed="max"/>
    <trip id="motorcycle16" depart="161.43" from="E16" to="E8" departLane="best" type="motorcycle_motorcycle" departSpeed="max"/>
    <trip id="motorcycle17" depart="171.52" from="E23" to="E20" departLane="best" type="motorcycle_motorcycle" departSpeed="max"/>
    <trip id="motorcycle18" depart="181.61" from="E11" to="E15" departLane="best" type="motorcycle_motorcycle" departSpeed="max"/>
    <trip id="motorcycle19" depart="191.70" from="E9" to="E22" departLane="best" type="motorcycle_motorcycle" departSpeed="max"/>
    <trip id="motorcycle20" depart="201.79" from="E21" to="E22" departLane="best" type="motorcycle_motorcycle" departSpeed="max"/>
    <trip id="motorcycle21" depart="211.88" from="E16" to="E14" departLane="best" type="motorcycle_motorcycle" departSpeed="max"/>
    <trip id="motorcycle22" depart="221.97" from="E12" to="E8" departLane="best" type="motorcycle_motorcycle" departSpeed="max"/>
    <trip id="motorcycle23" depart="232.06" from="E23" to="E15" departLane="best" type="motorcycle_motorcycle" departSpeed="max"/>
    <trip id="motorcycle24" depart="242.15" from="E7" to="E17" departLane="best" type="motorcycle_motorcycle"/>
    <trip id="motorcycle25" depart="252.24" from="E16" to="E13" departLane="best" type="motorcycle_motorcycle" departSpeed="max"/>
    <trip id="motorcycle26" depart="262.33" from="E21" to="E14" departLane="best" type="motorcycle_motorcycle" departSpeed="max"/>
    <trip id="motorcycle27" depart="272.42" from="E18" to="E13" departLane="best" type="motorcycle_motorcycle" departSpeed="max"/>
    <trip id="motorcycle28" depart="282.51" from="E9" to="E2" departLane="best" type="motorcycle_motorcycle" departSpeed="max"/>
    <trip id="motorcycle29" depart="292.60" from="E11" to="E1" departLane="best" type="motorcycle_motorcycle" departSpeed="max"/>
    <trip id="motorcycle30" depart="302.69" from="E11" to="E22" departLane="best" type="motorcycle_motorcycle" departSpeed="max"/>
    <trip id="motorcycle31" depart="312.78" from="E1" to="E15" departLane="best" type="motorcycle_motorcycle"/>
    <trip id="motorcycle32" depart="322.87" from="E9" to="E2" departLane="best" type="motorcycle_motorcycle" departSpeed="max"/>
    <trip id="motorcycle33" depart="332.96" from="E9" to="E6" departLane="best" type="motorcycle_motorcycle" departSpeed="max"/>
    <trip id="motorcycle34" depart="343.05" from="E16" to="E22" departLane="best" type="motorcycle_motorcycle" departSpeed="max"/>
    <trip id="motorcycle35" depart="353.14" from="E11" to="E17" departLane="best" type="motorcycle_motorcycle" departSpeed="max"/>
    <trip id="motorcycle36" depart="363.23" from="E19" to="E8" departLane="best" type="motorcycle_motorcycle" departSpeed="max"/>
    <trip id="motorcycle37" depart="373.32" from="E16" to="E22" departLane="best" type="motorcycle_motorcycle" departSpeed="max"/>
    <trip id="motorcycle38" depart="383.41" from="E21" to="E10" departLane="best" type="motorcycle_motorcycle" departSpeed="max"/>
    <trip id="motorcycle39" depart="393.49" from="E0" to="E14" departLane="best" type="motorcycle_motorcycle"/>
    <trip id="motorcycle40" depart="403.58" from="E16" to="E1" departLane="best" type="motorcycle_motorcycle" departSpeed="max"/>
    <trip id="motorcycle41" depart="413.67" from="E7" to="E8" departLane="best" type="motorcycle_motorcycle"/>
    <trip id="motorcycle42" depart="423.76" from="E11" to="E17" departLane="best" type="motorcycle_motorcycle" departSpeed="max"/>
    <trip id="motorcycle43" depart="433.85" from="E4" to="E10" departLane="best" type="motorcycle_motorcycle"/>
    <trip id="motorcycle44" depart="443.94" from="E19" to="E20" departLane="best" type="motorcycle_motorcycle" departSpeed="max"/>
    <trip id="motorcycle45" depart="454.03" from="E16" to="E6" departLane="best" type="motorcycle_motorcycle" departSpeed="max"/>
    <trip id="motorcycle46" depart="464.12" from="E19" to="E13" departLane="best" type="motorcycle_motorcycle" departSpeed="max"/>
    <trip id="motorcycle47" depart="474.21" from="E12" to="E14" departLane="best" type="motorcycle_motorcycle" departSpeed="max"/>
    <trip id="motorcycle48" depart="484.30" from="E9" to="E22" departLane="best" type="motorcycle_motorcycle" departSpeed="max"/>
    <trip id="motorcycle49" depart="494.39" from="E19" to="E2" departLane="best" type="motorcycle_motorcycle" departSpeed="max"/>
    <trip id="motorcycle50" depart="504.48" from="E11" to="E13" departLane="best" type="motorcycle_motorcycle" departSpeed="max"/>
    <trip id="motorcycle51" depart="514.57" from="E18" to="E20" departLane="best" type="motorcycle_motorcycle" departSpeed="max"/>
    <trip id="motorcycle52" depart="524.66" from="E12" to="E7" departLane="best" type="motorcycle_motorcycle" departSpeed="max"/>
    <trip id="motorcycle53" depart="534.75" from="E12" to="E22" departLane="best" type="motorcycle_motorcycle" departSpeed="max"/>
    <trip id="motorcycle54" depart="544.84" from="E12" to="E10" departLane="best" type="motorcycle_motorcycle" departSpeed="max"/>
    <trip id="motorcycle55" depart="554.93" from="E9" to="E20" departLane="best" type="motorcycle_motorcycle" departSpeed="max"/>
    <trip id="motorcycle56" depart="565.02" from="E19" to="E4" departLane="best" type="motorcycle_motorcycle" departSpeed="max"/>
    <trip id="motorcycle57" depart="575.11" from="E5" to="E13" departLane="best" type="motorcycle_motorcycle"/>
    <trip id="motorcycle58" depart="585.20" from="E11" to="E17" departLane="best" type="motorcycle_motorcycle" departSpeed="max"/>
    <trip id="motorcycle59" depart="595.29" from="E19" to="E17" departLane="best" type="motorcycle_motorcycle" departSpeed="max"/>
    <trip id="motorcycle60" depart="605.38" from="E9" to="E10" departLane="best" type="motorcycle_motorcycle" departSpeed="max"/>
    <trip id="motorcycle61" depart="615.47" from="E18" to="E15" departLane="best" type="motorcycle_motorcycle" departSpeed="max"/>
    <trip id="motorcycle62" depart="625.56" from="E6" to="E13" departLane="best" type="motorcycle_motorcycle"/>
    <trip id="motorcycle63" depart="635.65" from="E12" to="E17" departLane="best" type="motorcycle_motorcycle" departSpeed="max"/>
    <trip id="motorcycle64" depart="645.73" from="E19" to="E14" departLane="best" type="motorcycle_motorcycle" departSpeed="max"/>
    <trip id="motorcycle65" depart="655.82" from="E12" to="E8" departLane="best" type="motorcycle_motorcycle" departSpeed="max"/>
    <trip id="motorcycle66" depart="665.91" from="E21" to="E1" departLane="best" type="motorcycle_motorcycle" departSpeed="max"/>
    <trip id="motorcycle67" depart="676.00" from="E9" to="E6" departLane="best" type="motorcycle_motorcycle" departSpeed="max"/>
    <trip id="motorcycle68" depart="686.09" from="E19" to="E13" departLane="best" type="motorcycle_motorcycle" departSpeed="max"/>
    <trip id="motorcycle69" depart="696.18" from="E18" to="E8" departLane="best" type="motorcycle_motorcycle" departSpeed="max"/>
    <trip id="motorcycle70" depart="706.27" from="E19" to="E17" departLane="best" type="motorcycle_motorcycle" departSpeed="max"/>
    <trip id="motorcycle71" depart="716.36" from="E21" to="E3" departLane="best" type="motorcycle_motorcycle" departSpeed="max"/>
    <trip id="motorcycle72" depart="726.45" from="E11" to="E14" departLane="best" type="motorcycle_motorcycle" departSpeed="max"/>
    <trip id="motorcycle73" depart="736.54" from="E9" to="E20" departLane="best" type="motorcycle_motorcycle" departSpeed="max"/>
    <trip id="motorcycle74" depart="746.63" from="E21" to="E3" departLane="best" type="motorcycle_motorcycle" departSpeed="max"/>
    <trip id="motorcycle75" depart="756.72" from="E11" to="E8" departLane="best" type="motorcycle_motorcycle" departSpeed="max"/>
    <trip id="motorcycle76" depart="766.81" from="E21" to="E22" departLane="best" type="motorcycle_motorcycle" departSpeed="max"/>
    <trip id="motorcycle77" depart="776.90" from="E12" to="E10" departLane="best" type="motorcycle_motorcycle" departSpeed="max"/>
    <trip id="motorcycle78" depart="786.99" from="E19" to="E20" departLane="best" type="motorcycle_motorcycle" departSpeed="max"/>
    <trip id="motorcycle79" depart="797.08" from="E12" to="E15" departLane="best" type="motorcycle_motorcycle" departSpeed="max"/>
    <trip id="motorcycle80" depart="807.17" from="E23" to="E14" departLane="best" type="motorcycle_motorcycle" departSpeed="max"/>
    <trip id="motorcycle81" depart="817.26" from="E16" to="E8" departLane="best" type="motorcycle_motorcycle" departSpeed="max"/>
    <trip id="motorcycle82" depart="827.35" from="E7" to="E7" departLane="best" type="motorcycle_motorcycle"/>
    <trip id="motorcycle83" depart="837.44" from="E18" to="E10" departLane="best" type="motorcycle_motorcycle" departSpeed="max"/>
    <trip id="motorcycle84" depart="847.53" from="E21" to="E8" departLane="best" type="motorcycle_motorcycle" departSpeed="max"/>
    <trip id="motorcycle85" depart="857.62" from="E5" to="E14" departLane="best" type="motorcycle_motorcycle"/>
    <trip id="motorcycle86" depart="867.71" from="E23" to="E8" departLane="best" type="motorcycle_motorcycle" departSpeed="max"/>
    <trip id="motorcycle87" depart="877.80" from="E11" to="E20" departLane="best" type="motorcycle_motorcycle" departSpeed="max"/>
    <trip id="motorcycle88" depart="887.89" from="E16" to="E20" departLane="best" type="motorcycle_motorcycle" departSpeed="max"/>
    <trip id="motorcycle89" depart="897.98" from="E3" to="E13" departLane="best" type="motorcycle_motorcycle"/>
    <trip id="motorcycle90" depart="908.06" from="E23" to="E14" departLane="best" type="motorcycle_motorcycle" departSpeed="max"/>
    <trip id="motorcycle91" depart="918.15" from="E19" to="E7" departLane="best" type="motorcycle_motorcycle" departSpeed="max"/>
    <trip id="motorcycle92" depart="928.24" from="E19" to="E14" departLane="best" type="motorcycle_motorcycle" departSpeed="max"/>
    <trip id="motorcycle93" depart="938.33" from="E0" to="E4" departLane="best" type="motorcycle_motorcycle"/>
    <trip id="motorcycle94" depart="948.42" from="E23" to="E14" departLane="best" type="motorcycle_motorcycle" departSpeed="max"/>
    <trip id="motorcycle95" depart="958.51" from="E7" to="E20" departLane="best" type="motorcycle_motorcycle"/>
    <trip id="motorcycle96" depart="968.60" from="E5" to="E6" departLane="best" type="motorcycle_motorcycle"/>
    <trip id="motorcycle97" depart="978.69" from="E12" to="E10" departLane="best" type="motorcycle_motorcycle" departSpeed="max"/>
    <trip id="motorcycle98" depart="988.78" from="E18" to="E20" departLane="best" type="motorcycle_motorcycle" departSpeed="max"/>
    <trip id="motorcycle99" depart="998.87" from="E11" to="E8" departLane="best" type="motorcycle_motorcycle" departSpeed="max"/>
    <trip id="motorcycle100" depart="1008.96" from="E16" to="E8" departLane="best" type="motorcycle_motorcycle" departSpeed="max"/>
    <trip id="motorcycle101" depart="1019.05" from="E5" to="E6" departLane="best" type="motorcycle_motorcycle"/>
    <trip id="motorcycle102" depart="1029.14" from="E5" to="E14" departLane="best" type="motorcycle_motorcycle"/>
    <trip id="motorcycle103" depart="1039.23" from="E4" to="E10" departLane="best" type="motorcycle_motorcycle"/>
    <trip id="motorcycle104" depart="1049.32" from="E6" to="E6" departLane="best" type="motorcycle_motorcycle"/>
    <trip id="motorcycle105" depart="1059.41" from="E19" to="E14" departLane="best" type="motorcycle_motorcycle" departSpeed="max"/>
    <trip id="motorcycle106" depart="1069.50" from="E5" to="E13" departLane="best" type="motorcycle_motorcycle"/>
    <trip id="motorcycle107" depart="1079.59" from="E0" to="E13" departLane="best" type="motorcycle_motorcycle"/>
    <trip id="motorcycle108" depart="1089.68" from="E16" to="E6" departLane="best" type="motorcycle_motorcycle" departSpeed="max"/>
    <trip id="motorcycle109" depart="1099.77" from="E9" to="E14" departLane="best" type="motorcycle_motorcycle" departSpeed="max"/>
    <trip id="motorcycle110" depart="1109.86" from="E23" to="E15" departLane="best" type="motorcycle_motorcycle" departSpeed="max"/>
    <trip id="motorcycle111" depart="1119.95" from="E9" to="E2" departLane="best" type="motorcycle_motorcycle" departSpeed="max"/>
    <trip id="motorcycle112" depart="1130.04" from="E9" to="E10" departLane="best" type="motorcycle_motorcycle" departSpeed="max"/>
    <trip id="motorcycle113" depart="1140.13" from="E9" to="E13" departLane="best" type="motorcycle_motorcycle" departSpeed="max"/>
    <trip id="motorcycle114" depart="1150.22" from="E9" to="E14" departLane="best" type="motorcycle_motorcycle" departSpeed="max"/>
    <trip id="motorcycle115" depart="1160.30" from="E11" to="E17" departLane="best" type="motorcycle_motorcycle" departSpeed="max"/>
    <trip id="motorcycle116" depart="1170.39" from="E3" to="E14" departLane="best" type="motorcycle_motorcycle"/>
    <trip id="motorcycle117" depart="1180.48" from="E18" to="E20" departLane="best" type="motorcycle_motorcycle" departSpeed="max"/>
    <trip id="motorcycle118" depart="1190.57" from="E23" to="E14" departLane="best" type="motorcycle_motorcycle" departSpeed="max"/>
    <trip id="motorcycle119" depart="1200.66" from="E16" to="E6" departLane="best" type="motorcycle_motorcycle" departSpeed="max"/>
    <trip id="motorcycle120" depart="1210.75" from="E3" to="E14" departLane="best" type="motorcycle_motorcycle"/>
    <trip id="motorcycle121" depart="1220.84" from="E16" to="E15" departLane="best" type="motorcycle_motorcycle" departSpeed="max"/>
    <trip id="motorcycle122" depart="1230.93" from="E18" to="E14" departLane="best" type="motorcycle_motorcycle" departSpeed="max"/>
    <trip id="motorcycle123" depart="1241.02" from="E11" to="E17" departLane="best" type="motorcycle_motorcycle" departSpeed="max"/>
    <trip id="motorcycle124" depart="1251.11" from="E9" to="E22" departLane="best" type="motorcycle_motorcycle" departSpeed="max"/>
    <trip id="motorcycle125" depart="1261.20" from="E7" to="E20" departLane="best" type="motorcycle_motorcycle"/>
    <trip id="motorcycle126" depart="1271.29" from="E16" to="E20" departLane="best" type="motorcycle_motorcycle" departSpeed="max"/>
    <trip id="motorcycle127" depart="1281.38" from="E0" to="E14" departLane="best" type="motorcycle_motorcycle"/>
    <trip id="motorcycle128" depart="1291.47" from="E19" to="E20" departLane="best" type="motorcycle_motorcycle" departSpeed="max"/>
    <trip id="motorcycle129" depart="1301.56" from="E23" to="E17" departLane="best" type="motorcycle_motorcycle" departSpeed="max"/>
    <trip id="motorcycle130" depart="1311.65" from="E19" to="E13" departLane="best" type="motorcycle_motorcycle" departSpeed="max"/>
    <trip id="motorcycle131" depart="1321.74" from="E19" to="E7" departLane="best" type="motorcycle_motorcycle" departSpeed="max"/>
    <trip id="motorcycle132" depart="1331.83" from="E5" to="E13" departLane="best" type="motorcycle_motorcycle"/>
    <trip id="motorcycle133" depart="1341.92" from="E11" to="E2" departLane="best" type="motorcycle_motorcycle" departSpeed="max"/>
    <trip id="motorcycle134" depart="1352.01" from="E23" to="E15" departLane="best" type="motorcycle_motorcycle" departSpeed="max"/>
    <trip id="motorcycle135" depart="1362.10" from="E23" to="E13" departLane="best" type="motorcycle_motorcycle" departSpeed="max"/>
    <trip id="motorcycle136" depart="1372.19" from="E12" to="E17" departLane="best" type="motorcycle_motorcycle" departSpeed="max"/>
    <trip id="motorcycle137" depart="1382.28" from="E18" to="E22" departLane="best" type="motorcycle_motorcycle" departSpeed="max"/>
    <trip id="motorcycle138" depart="1392.37" from="E12" to="E22" departLane="best" type="motorcycle_motorcycle" departSpeed="max"/>
    <trip id="motorcycle139" depart="1402.46" from="E19" to="E13" departLane="best" type="motorcycle_motorcycle" departSpeed="max"/>
    <trip id="motorcycle140" depart="1412.54" from="E4" to="E4" departLane="best" type="motorcycle_motorcycle"/>
    <trip id="motorcycle141" depart="1422.63" from="E11" to="E17" departLane="best" type="motorcycle_motorcycle" departSpeed="max"/>
    <trip id="motorcycle142" depart="1432.72" from="E12" to="E8" departLane="best" type="motorcycle_motorcycle" departSpeed="max"/>
    <trip id="motorcycle143" depart="1442.81" from="E23" to="E8" departLane="best" type="motorcycle_motorcycle" departSpeed="max"/>
    <trip id="motorcycle144" depart="1452.90" from="E21" to="E8" departLane="best" type="motorcycle_motorcycle" departSpeed="max"/>
    <trip id="motorcycle145" depart="1462.99" from="E7" to="E20" departLane="best" type="motorcycle_motorcycle"/>
    <trip id="motorcycle146" depart="1473.08" from="E5" to="E20" departLane="best" type="motorcycle_motorcycle"/>
    <trip id="motorcycle147" depart="1483.17" from="E19" to="E14" departLane="best" type="motorcycle_motorcycle" departSpeed="max"/>
    <trip id="motorcycle148" depart="1493.26" from="E12" to="E22" departLane="best" type="motorcycle_motorcycle" departSpeed="max"/>
    <trip id="motorcycle149" depart="1503.35" from="E23" to="E14" departLane="best" type="motorcycle_motorcycle" departSpeed="max"/>
    <trip id="motorcycle150" depart="1513.44" from="E16" to="E14" departLane="best" type="motorcycle_motorcycle" departSpeed="max"/>
    <trip id="motorcycle151" depart="1523.53" from="E12" to="E22" departLane="best" type="motorcycle_motorcycle" departSpeed="max"/>
    <trip id="motorcycle152" depart="1533.62" from="E23" to="E1" departLane="best" type="motorcycle_motorcycle" departSpeed="max"/>
    <trip id="motorcycle153" depart="1543.71" from="E18" to="E20" departLane="best" type="motorcycle_motorcycle" departSpeed="max"/>
    <trip id="motorcycle154" depart="1553.80" from="E18" to="E13" departLane="best" type="motorcycle_motorcycle" departSpeed="max"/>
    <trip id="motorcycle155" depart="1563.89" from="E19" to="E7" departLane="best" type="motorcycle_motorcycle" departSpeed="max"/>
    <trip id="motorcycle156" depart="1573.98" from="E21" to="E22" departLane="best" type="motorcycle_motorcycle" departSpeed="max"/>
    <trip id="motorcycle157" depart="1584.07" from="E18" to="E0" departLane="best" type="motorcycle_motorcycle" departSpeed="max"/>
    <trip id="motorcycle158" depart="1594.16" from="E18" to="E4" departLane="best" type="motorcycle_motorcycle" departSpeed="max"/>
    <trip id="motorcycle159" depart="1604.25" from="E18" to="E22" departLane="best" type="motorcycle_motorcycle" departSpeed="max"/>
    <trip id="motorcycle160" depart="1614.34" from="E18" to="E10" departLane="best" type="motorcycle_motorcycle" departSpeed="max"/>
    <trip id="motorcycle161" depart="1624.43" from="E19" to="E10" departLane="best" type="motorcycle_motorcycle" departSpeed="max"/>
    <trip id="motorcycle162" depart="1634.52" from="E18" to="E20" departLane="best" type="motorcycle_motorcycle" departSpeed="max"/>
    <trip id="motorcycle163" depart="1644.61" from="E0" to="E22" departLane="best" type="motorcycle_motorcycle"/>
    <trip id="motorcycle164" depart="1654.70" from="E11" to="E17" departLane="best" type="motorcycle_motorcycle" departSpeed="max"/>
    <trip id="motorcycle165" depart="1664.79" from="E1" to="E15" departLane="best" type="motorcycle_motorcycle"/>
    <trip id="motorcycle166" depart="1674.87" from="E12" to="E14" departLane="best" type="motorcycle_motorcycle" departSpeed="max"/>
    <trip id="motorcycle167" depart="1684.96" from="E16" to="E1" departLane="best" type="motorcycle_motorcycle" departSpeed="max"/>
    <trip id="motorcycle168" depart="1695.05" from="E0" to="E2" departLane="best" type="motorcycle_motorcycle"/>
    <trip id="motorcycle169" depart="1705.14" from="E9" to="E15" departLane="best" type="motorcycle_motorcycle" departSpeed="max"/>
    <trip id="motorcycle170" depart="1715.23" from="E23" to="E4" departLane="best" type="motorcycle_motorcycle" departSpeed="max"/>
    <trip id="motorcycle171" depart="1725.32" from="E23" to="E4" departLane="best" type="motorcycle_motorcycle" departSpeed="max"/>
    <trip id="motorcycle172" depart="1735.41" from="E9" to="E13" departLane="best" type="motorcycle_motorcycle" departSpeed="max"/>
    <trip id="motorcycle173" depart="1745.50" from="E0" to="E10" departLane="best" type="motorcycle_motorcycle"/>
    <trip id="motorcycle174" depart="1755.59" from="E11" to="E22" departLane="best" type="motorcycle_motorcycle" departSpeed="max"/>
    <trip id="motorcycle175" depart="1765.68" from="E21" to="E13" departLane="best" type="motorcycle_motorcycle" departSpeed="max"/>
    <trip id="motorcycle176" depart="1775.77" from="E23" to="E4" departLane="best" type="motorcycle_motorcycle" departSpeed="max"/>
    <trip id="motorcycle177" depart="1785.86" from="E12" to="E20" departLane="best" type="motorcycle_motorcycle" departSpeed="max"/>
    <trip id="motorcycle178" depart="1795.95" from="E3" to="E10" departLane="best" type="motorcycle_motorcycle"/>
    <trip id="motorcycle179" depart="1806.04" from="E5" to="E8" departLane="best" type="motorcycle_motorcycle"/>
    <trip id="motorcycle180" depart="1816.13" from="E16" to="E22" departLane="best" type="motorcycle_motorcycle" departSpeed="max"/>
    <trip id="motorcycle181" depart="1826.22" from="E9" to="E15" departLane="best" type="motorcycle_motorcycle" departSpeed="max"/>
    <trip id="motorcycle182" depart="1836.31" from="E3" to="E1" departLane="best" type="motorcycle_motorcycle"/>
    <trip id="motorcycle183" depart="1846.40" from="E23" to="E22" departLane="best" type="motorcycle_motorcycle" departSpeed="max"/>
    <trip id="motorcycle184" depart="1856.49" from="E11" to="E8" departLane="best" type="motorcycle_motorcycle" departSpeed="max"/>
    <trip id="motorcycle185" depart="1866.58" from="E19" to="E15" departLane="best" type="motorcycle_motorcycle" departSpeed="max"/>
    <trip id="motorcycle186" depart="1876.67" from="E11" to="E8" departLane="best" type="motorcycle_motorcycle" departSpeed="max"/>
    <trip id="motorcycle187" depart="1886.76" from="E23" to="E17" departLane="best" type="motorcycle_motorcycle" departSpeed="max"/>
    <trip id="motorcycle188" depart="1896.85" from="E3" to="E8" departLane="best" type="motorcycle_motorcycle"/>
    <trip id="motorcycle189" depart="1906.94" from="E16" to="E5" departLane="best" type="motorcycle_motorcycle" departSpeed="max"/>
    <trip id="motorcycle190" depart="1917.03" from="E16" to="E6" departLane="best" type="motorcycle_motorcycle" departSpeed="max"/>
    <trip id="motorcycle191" depart="1927.11" from="E19" to="E20" departLane="best" type="motorcycle_motorcycle" departSpeed="max"/>
    <trip id="motorcycle192" depart="1937.20" from="E18" to="E0" departLane="best" type="motorcycle_motorcycle" departSpeed="max"/>
    <trip id="motorcycle193" depart="1947.29" from="E6" to="E13" departLane="best" type="motorcycle_motorcycle"/>
    <trip id="motorcycle194" depart="1957.38" from="E23" to="E14" departLane="best" type="motorcycle_motorcycle" departSpeed="max"/>
    <trip id="motorcycle195" depart="1967.47" from="E19" to="E4" departLane="best" type="motorcycle_motorcycle" departSpeed="max"/>
    <trip id="motorcycle196" depart="1977.56" from="E23" to="E22" departLane="best" type="motorcycle_motorcycle" departSpeed="max"/>
    <trip id="motorcycle197" depart="1987.65" from="E11" to="E13" departLane="best" type="motorcycle_motorcycle" departSpeed="max"/>
    <trip id="motorcycle198" depart="1997.74" from="E23" to="E14" departLane="best" type="motorcycle_motorcycle" departSpeed="max"/>
    <trip id="motorcycle199" depart="2007.83" from="E21" to="E17" departLane="best" type="motorcycle_motorcycle" departSpeed="max"/>
    <trip id="motorcycle200" depart="2017.92" from="E3" to="E14" departLane="best" type="motorcycle_motorcycle"/>
    <trip id="motorcycle201" depart="2028.01" from="E23" to="E14" departLane="best" type="motorcycle_motorcycle" departSpeed="max"/>
    <trip id="motorcycle202" depart="2038.10" from="E16" to="E10" departLane="best" type="motorcycle_motorcycle" departSpeed="max"/>
    <trip id="motorcycle203" depart="2048.19" from="E12" to="E10" departLane="best" type="motorcycle_motorcycle" departSpeed="max"/>
    <trip id="motorcycle204" depart="2058.28" from="E9" to="E2" departLane="best" type="motorcycle_motorcycle" departSpeed="max"/>
    <trip id="motorcycle205" depart="2068.37" from="E16" to="E10" departLane="best" type="motorcycle_motorcycle" departSpeed="max"/>
    <trip id="motorcycle206" depart="2078.46" from="E9" to="E20" departLane="best" type="motorcycle_motorcycle" departSpeed="max"/>
    <trip id="motorcycle207" depart="2088.55" from="E23" to="E10" departLane="best" type="motorcycle_motorcycle" departSpeed="max"/>
    <trip id="motorcycle208" depart="2098.64" from="E19" to="E17" departLane="best" type="motorcycle_motorcycle" departSpeed="max"/>
    <trip id="motorcycle209" depart="2108.73" from="E12" to="E1" departLane="best" type="motorcycle_motorcycle" departSpeed="max"/>
    <trip id="motorcycle210" depart="2118.82" from="E9" to="E17" departLane="best" type="motorcycle_motorcycle" departSpeed="max"/>
    <trip id="motorcycle211" depart="2128.91" from="E5" to="E15" departLane="best" type="motorcycle_motorcycle"/>
    <trip id="motorcycle212" depart="2139.00" from="E21" to="E14" departLane="best" type="motorcycle_motorcycle" departSpeed="max"/>
    <trip id="motorcycle213" depart="2149.09" from="E9" to="E10" departLane="best" type="motorcycle_motorcycle" departSpeed="max"/>
    <trip id="motorcycle214" depart="2159.18" from="E9" to="E14" departLane="best" type="motorcycle_motorcycle" departSpeed="max"/>
    <trip id="motorcycle215" depart="2169.27" from="E3" to="E8" departLane="best" type="motorcycle_motorcycle"/>
    <trip id="motorcycle216" depart="2179.36" from="E23" to="E10" departLane="best" type="motorcycle_motorcycle" departSpeed="max"/>
    <trip id="motorcycle217" depart="2189.44" from="E12" to="E1" departLane="best" type="motorcycle_motorcycle" departSpeed="max"/>
    <trip id="motorcycle218" depart="2199.53" from="E0" to="E17" departLane="best" type="motorcycle_motorcycle"/>
    <trip id="motorcycle219" depart="2209.62" from="E21" to="E14" departLane="best" type="motorcycle_motorcycle" departSpeed="max"/>
    <trip id="motorcycle220" depart="2219.71" from="E12" to="E22" departLane="best" type="motorcycle_motorcycle" departSpeed="max"/>
    <trip id="motorcycle221" depart="2229.80" from="E23" to="E17" departLane="best" type="motorcycle_motorcycle" departSpeed="max"/>
    <trip id="motorcycle222" depart="2239.89" from="E23" to="E8" departLane="best" type="motorcycle_motorcycle" departSpeed="max"/>
    <trip id="motorcycle223" depart="2249.98" from="E23" to="E8" departLane="best" type="motorcycle_motorcycle" departSpeed="max"/>
    <trip id="motorcycle224" depart="2260.07" from="E19" to="E20" departLane="best" type="motorcycle_motorcycle" departSpeed="max"/>
    <trip id="motorcycle225" depart="2270.16" from="E5" to="E1" departLane="best" type="motorcycle_motorcycle"/>