<?xml version="1.0" encoding="UTF-8"?>

<!-- generated on 2025-06-25 10:12:07 by Eclipse SUMO netedit Version 1.23.1
-->

<additional xmlns:xsi="http://www.w3.org/2001/XMLSchema-instance" xsi:noNamespaceSchemaLocation="http://sumo.dlr.de/xsd/additional_file.xsd">
    <!-- Detectors -->
    <laneAreaDetector id="e2_0" lane="E5_3" pos="2.40" length="130.00" period="300.00" file="e2_0.xml" friendlyPos="1"/>
    <laneAreaDetector id="e2_1" lane="E5_2" pos="1.90" length="130.00" period="300.00" file="e2_1.xml" friendlyPos="1"/>
    <laneAreaDetector id="e2_10" lane="E3_2" pos="2.23" length="105.00" period="300.00" file="e2_10.xml" friendlyPos="1"/>
    <laneAreaDetector id="e2_11" lane="E3_3" pos="2.87" length="104.00" period="300.00" file="e2_11.xml" friendlyPos="1"/>
    <laneAreaDetector id="e2_2" lane="E5_1" pos="1.92" length="130.00" period="300.00" file="e2_2.xml" friendlyPos="1"/>
    <laneAreaDetector id="e2_3" lane="E7_3" pos="2.65" length="120.00" period="300.00" file="e2_3.xml" friendlyPos="1"/>
    <laneAreaDetector id="e2_4" lane="E7_2" pos="1.28" length="120.00" period="300.00" file="e2_4.xml"/>
    <laneAreaDetector id="e2_5" lane="E7_1" pos="3.28" length="120.00" period="300.00" file="e2_5.xml" friendlyPos="1"/>
    <laneAreaDetector id="e2_6" lane="E0_1" pos="4.26" length="110.00" period="300.00" file="e2_6.xml" friendlyPos="1"/>
    <laneAreaDetector id="e2_7" lane="E0_2" pos="4.68" length="110.00" period="300.00" file="e2_7.xml" friendlyPos="1"/>
    <laneAreaDetector id="e2_8" lane="E0_3" pos="4.88" length="110.00" period="300.00" file="e2_8.xml" friendlyPos="1"/>
    <laneAreaDetector id="e2_9" lane="E3_1" pos="2.44" length="104.00" period="300.00" file="e2_9.xml"/>
</additional>
