<?xml version="1.0" encoding="UTF-8"?>

<!-- generated on 2025-07-01 15:12:14.110792 by randomTrips.py v1_23_1+0000-676720d13f6
<configuration>
    <net-file value="osm.net.xml.gz"/>
    <output-trip-file value="osm.passenger.trips.xml"/>
    <route-file value="osm.passenger.rou.xml"/>
    <prefix value="veh"/>
    <trip-attributes value="departLane=&quot;best&quot;"/>
    <fringe-start-attributes value="departSpeed=&quot;max&quot;"/>
    <vehicle-class value="passenger"/>
    <lanes value="True"/>
    <fringe-factor value="5"/>
    <allow-fringe.min-length value="10000.0"/>
    <edge-permission value="passenger"/>
    <via-edge-types value="highway.motorway,highway.motorway_link,highway.trunk_link,highway.primary_link,highway.secondary_link,highway.tertiary_link"/>
    <min-distance value="300.0"/>
    <min-distance.fringe value="100.0"/>
    <remove-loops value="True"/>
    <validate value="True"/>
    <insertion-density value="120.0"/>
</configuration>
-->

<!-- generated on 2025-07-01 15:12:14 by Eclipse SUMO duarouter Version 1.23.1
<duarouterConfiguration xmlns:xsi="http://www.w3.org/2001/XMLSchema-instance" xsi:noNamespaceSchemaLocation="http://sumo.dlr.de/xsd/duarouterConfiguration.xsd">

    <input>
        <net-file value="osm.net.xml.gz"/>
        <route-files value="osm.passenger.trips.xml"/>
    </input>

    <output>
        <output-file value="osm.passenger.rou.xml"/>
        <alternatives-output value="NUL"/>
    </output>

    <processing>
        <remove-loops value="true"/>
    </processing>

    <time>
        <begin value="0.0"/>
        <end value="3600.0"/>
    </time>

    <report>
        <no-warnings value="true"/>
        <ignore-errors value="true"/>
        <no-step-log value="true"/>
    </report>

</duarouterConfiguration>
-->

<routes xmlns:xsi="http://www.w3.org/2001/XMLSchema-instance" xsi:noNamespaceSchemaLocation="http://sumo.dlr.de/xsd/routes_file.xsd">
    <vType id="veh_passenger" vClass="passenger"/>
    <vehicle id="veh0" type="veh_passenger" depart="0.00" departLane="best">
        <route edges="E7 E4 E10"/>
    </vehicle>
    <vehicle id="veh1" type="veh_passenger" depart="3.33" departLane="best" departSpeed="max">
        <route edges="E12 E7 E4 E17"/>
    </vehicle>
    <vehicle id="veh2" type="veh_passenger" depart="6.66" departLane="best" departSpeed="max">
        <route edges="E12 E7 E2 E20"/>
    </vehicle>
    <vehicle id="veh3" type="veh_passenger" depart="9.98" departLane="best" departSpeed="max">
        <route edges="E9 E0 E6 E14"/>
    </vehicle>
    <vehicle id="veh4" type="veh_passenger" depart="13.31" departLane="best" departSpeed="max">
        <route edges="E11 E5 E6 E13"/>
    </vehicle>
    <vehicle id="veh5" type="veh_passenger" depart="16.64" departLane="best" departSpeed="max">
        <route edges="E21 E3 E1 E15"/>
    </vehicle>
    <vehicle id="veh6" type="veh_passenger" depart="19.97" departLane="best" departSpeed="max">
        <route edges="E18 E0 E6 E13"/>
    </vehicle>
    <vehicle id="veh7" type="veh_passenger" depart="23.30" departLane="best" departSpeed="max">
        <route edges="E16 E5 E1 E8"/>
    </vehicle>
    <vehicle id="veh8" type="veh_passenger" depart="26.63" departLane="best" departSpeed="max">
        <route edges="E12 E7 E2 E22"/>
    </vehicle>
    <vehicle id="veh9" type="veh_passenger" depart="29.95" departLane="best" departSpeed="max">
        <route edges="E9 E0 E2 E20"/>
    </vehicle>
    <vehicle id="veh10" type="veh_passenger" depart="33.28" departLane="best" departSpeed="max">
        <route edges="E12 E7 E1"/>
    </vehicle>
    <vehicle id="veh11" type="veh_passenger" depart="36.61" departLane="best" departSpeed="max">
        <route edges="E12 E7 E1 E8"/>
    </vehicle>
    <vehicle id="veh12" type="veh_passenger" depart="39.94" departLane="best" departSpeed="max">
        <route edges="E21 E3 E1 E15"/>
    </vehicle>
    <vehicle id="veh13" type="veh_passenger" depart="43.27" departLane="best" departSpeed="max">
        <route edges="E9 E0 E4 E17"/>
    </vehicle>
    <vehicle id="veh14" type="veh_passenger" depart="46.60" departLane="best" departSpeed="max">
        <route edges="E18 E0 E6 E13"/>
    </vehicle>
    <vehicle id="veh15" type="veh_passenger" depart="49.92" departLane="best" departSpeed="max">
        <route edges="E9 E0 E4 E17"/>
    </vehicle>
    <vehicle id="veh16" type="veh_passenger" depart="53.25" departLane="best" departSpeed="max">
        <route edges="E11 E5 E1"/>
    </vehicle>
    <vehicle id="veh17" type="veh_passenger" depart="56.58" departLane="best" departSpeed="max">
        <route edges="E11 E5 E2 E20"/>
    </vehicle>
    <vehicle id="veh18" type="veh_passenger" depart="59.91" departLane="best" departSpeed="max">
        <route edges="E11 E5 E1 E15"/>
    </vehicle>
    <vehicle id="veh19" type="veh_passenger" depart="63.24" departLane="best" departSpeed="max">
        <route edges="E9 E0 E4 E17"/>
    </vehicle>
    <vehicle id="veh20" type="veh_passenger" depart="66.57" departLane="best" departSpeed="max">
        <route edges="E16 E5 E2 E20"/>
    </vehicle>
    <vehicle id="veh21" type="veh_passenger" depart="69.89" departLane="best" departSpeed="max">
        <route edges="E11 E5 E1 E15"/>
    </vehicle>
    <vehicle id="veh22" type="veh_passenger" depart="73.22" departLane="best" departSpeed="max">
        <route edges="E16 E5 E2 E20"/>
    </vehicle>
    <vehicle id="veh23" type="veh_passenger" depart="76.55" departLane="best" departSpeed="max">
        <route edges="E21 E3 E6 E13"/>
    </vehicle>
    <vehicle id="veh24" type="veh_passenger" depart="79.88" departLane="best">
        <route edges="E0 E6 E14"/>
    </vehicle>
    <vehicle id="veh25" type="veh_passenger" depart="83.21" departLane="best" departSpeed="max">
        <route edges="E11 E5 E2 E22"/>
    </vehicle>
    <vehicle id="veh26" type="veh_passenger" depart="86.54" departLane="best" departSpeed="max">
        <route edges="E19 E7 E2"/>
    </vehicle>
    <vehicle id="veh27" type="veh_passenger" depart="89.86" departLane="best" departSpeed="max">
        <route edges="E18 E0 E6 E13"/>
    </vehicle>
    <vehicle id="veh28" type="veh_passenger" depart="93.19" departLane="best" departSpeed="max">
        <route edges="E9 E0 E2 E20"/>
    </vehicle>
    <vehicle id="veh29" type="veh_passenger" depart="96.52" departLane="best" departSpeed="max">
        <route edges="E11 E5 E6 E13"/>
    </vehicle>
    <vehicle id="veh30" type="veh_passenger" depart="99.85" departLane="best" departSpeed="max">
        <route edges="E16 E5 E2 E20"/>
    </vehicle>
    <vehicle id="veh31" type="veh_passenger" depart="103.18" departLane="best" departSpeed="max">
        <route edges="E11 E5 E2 E20"/>
    </vehicle>
    <vehicle id="veh32" type="veh_passenger" depart="106.51" departLane="best" departSpeed="max">
        <route edges="E12 E7 E1 E8"/>
    </vehicle>
    <vehicle id="veh33" type="veh_passenger" depart="109.83" departLane="best" departSpeed="max">
        <route edges="E12 E7 E2 E20"/>
    </vehicle>
    <vehicle id="veh34" type="veh_passenger" depart="113.16" departLane="best" departSpeed="max">
        <route edges="E12 E7 E4 E10"/>
    </vehicle>
    <vehicle id="veh35" type="veh_passenger" depart="116.49" departLane="best" departSpeed="max">
        <route edges="E11 E5 E1 E15"/>
    </vehicle>
    <vehicle id="veh36" type="veh_passenger" depart="119.82" departLane="best" departSpeed="max">
        <route edges="E9 E0 E4 E10"/>
    </vehicle>
    <vehicle id="veh37" type="veh_passenger" depart="123.15" departLane="best" departSpeed="max">
        <route edges="E18 E0 E6 E14"/>
    </vehicle>
    <vehicle id="veh38" type="veh_passenger" depart="126.48" departLane="best" departSpeed="max">
        <route edges="E12 E7 E4 E17"/>
    </vehicle>
    <vehicle id="veh39" type="veh_passenger" depart="129.80" departLane="best" departSpeed="max">
        <route edges="E18 E0 E6 E14"/>
    </vehicle>
    <vehicle id="veh40" type="veh_passenger" depart="133.13" departLane="best" departSpeed="max">
        <route edges="E12 E7 E1 E8"/>
    </vehicle>
    <vehicle id="veh41" type="veh_passenger" depart="136.46" departLane="best" departSpeed="max">
        <route edges="E18 E0 E6"/>
    </vehicle>
    <vehicle id="veh42" type="veh_passenger" depart="139.79" departLane="best" departSpeed="max">
        <route edges="E18 E0 E4 E10"/>
    </vehicle>
    <vehicle id="veh43" type="veh_passenger" depart="143.12" departLane="best" departSpeed="max">
        <route edges="E9 E0 E2 E20"/>
    </vehicle>
    <vehicle id="veh44" type="veh_passenger" depart="146.45" departLane="best" departSpeed="max">
        <route edges="E11 E5 E2 E20"/>
    </vehicle>
    <vehicle id="veh45" type="veh_passenger" depart="149.77" departLane="best" departSpeed="max">
        <route edges="E12 E7 E1 E8"/>
    </vehicle>
    <vehicle id="veh46" type="veh_passenger" depart="153.10" departLane="best" departSpeed="max">
        <route edges="E11 E5 E6 E13"/>
    </vehicle>
    <vehicle id="veh47" type="veh_passenger" depart="156.43" departLane="best" departSpeed="max">
        <route edges="E12 E7 E4 E10"/>
    </vehicle>
    <vehicle id="veh48" type="veh_passenger" depart="159.76" departLane="best" departSpeed="max">
        <route edges="E12 E7 E2 E22"/>
    </vehicle>
    <vehicle id="veh49" type="veh_passenger" depart="163.09" departLane="best" departSpeed="max">
        <route edges="E16 E5 E2 E22"/>
    </vehicle>
    <vehicle id="veh50" type="veh_passenger" depart="166.42" departLane="best" departSpeed="max">
        <route edges="E11 E5 E6 E13"/>
    </vehicle>
    <vehicle id="veh51" type="veh_passenger" depart="169.74" departLane="best" departSpeed="max">
        <route edges="E16 E5 E1 E8"/>
    </vehicle>
    <vehicle id="veh52" type="veh_passenger" depart="173.07" departLane="best" departSpeed="max">
        <route edges="E18 E0 E6 E13"/>
    </vehicle>
    <vehicle id="veh53" type="veh_passenger" depart="176.40" departLane="best">
        <route edges="E5 E2 E22"/>
    </vehicle>
    <vehicle id="veh54" type="veh_passenger" depart="179.73" departLane="best" departSpeed="max">
        <route edges="E21 E3 E1 E8"/>
    </vehicle>
    <vehicle id="veh55" type="veh_passenger" depart="183.06" departLane="best" departSpeed="max">
        <route edges="E21 E3 E1 E8"/>
    </vehicle>
    <vehicle id="veh56" type="veh_passenger" depart="186.39" departLane="best" departSpeed="max">
        <route edges="E11 E5 E2"/>
    </vehicle>
    <vehicle id="veh57" type="veh_passenger" depart="189.71" departLane="best" departSpeed="max">
        <route edges="E16 E5 E2 E20"/>
    </vehicle>
    <vehicle id="veh58" type="veh_passenger" depart="193.04" departLane="best" departSpeed="max">
        <route edges="E23 E3 E6 E13"/>
    </vehicle>
    <vehicle id="veh59" type="veh_passenger" depart="196.37" departLane="best" departSpeed="max">
        <route edges="E21 E3 E6 E14"/>
    </vehicle>
    <vehicle id="veh60" type="veh_passenger" depart="199.70" departLane="best" departSpeed="max">
        <route edges="E18 E0 E6 E14"/>
    </vehicle>
    <vehicle id="veh61" type="veh_passenger" depart="203.03" departLane="best" departSpeed="max">
        <route edges="E21 E3 E6 E14"/>
    </vehicle>
    <vehicle id="veh62" type="veh_passenger" depart="206.36" departLane="best" departSpeed="max">
        <route edges="E9 E0 E4 E17"/>
    </vehicle>
    <vehicle id="veh63" type="veh_passenger" depart="209.68" departLane="best" departSpeed="max">
        <route edges="E12 E7 E4 E10"/>
    </vehicle>
    <vehicle id="veh64" type="veh_passenger" depart="213.01" departLane="best" departSpeed="max">
        <route edges="E12 E7 E1 E8"/>
    </vehicle>
    <vehicle id="veh65" type="veh_passenger" depart="216.34" departLane="best" departSpeed="max">
        <route edges="E16 E5 E1 E8"/>
    </vehicle>
    <vehicle id="veh66" type="veh_passenger" depart="219.67" departLane="best">
        <route edges="E3 E4 E10"/>
    </vehicle>
    <vehicle id="veh67" type="veh_passenger" depart="223.00" departLane="best" departSpeed="max">
        <route edges="E12 E7 E4"/>
    </vehicle>
    <vehicle id="veh68" type="veh_passenger" depart="226.33" departLane="best">
        <route edges="E3 E6 E13"/>
    </vehicle>
    <vehicle id="veh69" type="veh_passenger" depart="229.65" departLane="best">
        <route edges="E0 E6 E13"/>
    </vehicle>
    <vehicle id="veh70" type="veh_passenger" depart="232.98" departLane="best" departSpeed="max">
        <route edges="E9 E0 E6 E14"/>
    </vehicle>
    <vehicle id="veh71" type="veh_passenger" depart="236.31" departLane="best" departSpeed="max">
        <route edges="E21 E3 E1 E15"/>
    </vehicle>
    <vehicle id="veh72" type="veh_passenger" depart="239.64" departLane="best" departSpeed="max">
        <route edges="E9 E0 E4 E17"/>
    </vehicle>
    <vehicle id="veh73" type="veh_passenger" depart="242.97" departLane="best" departSpeed="max">
        <route edges="E9 E0 E4 E10"/>
    </vehicle>
    <vehicle id="veh74" type="veh_passenger" depart="246.30" departLane="best" departSpeed="max">
        <route edges="E9 E0 E6 E13"/>
    </vehicle>
    <vehicle id="veh75" type="veh_passenger" depart="249.62" departLane="best" departSpeed="max">
        <route edges="E9 E0 E6 E14"/>
    </vehicle>
    <vehicle id="veh76" type="veh_passenger" depart="252.95" departLane="best" departSpeed="max">
        <route edges="E11 E5 E1 E15"/>
    </vehicle>
    <vehicle id="veh77" type="veh_passenger" depart="256.28" departLane="best" departSpeed="max">
        <route edges="E16 E5 E2 E22"/>
    </vehicle>
    <vehicle id="veh78" type="veh_passenger" depart="259.61" departLane="best" departSpeed="max">
        <route edges="E18 E0 E4 E10"/>
    </vehicle>
    <vehicle id="veh79" type="veh_passenger" depart="262.94" departLane="best" departSpeed="max">
        <route edges="E21 E3 E6 E14"/>
    </vehicle>
    <vehicle id="veh80" type="veh_passenger" depart="266.26" departLane="best" departSpeed="max">
        <route edges="E18 E0 E6 E14"/>
    </vehicle>
    <vehicle id="veh81" type="veh_passenger" depart="269.59" departLane="best" departSpeed="max">
        <route edges="E11 E5 E1 E15"/>
    </vehicle>
    <vehicle id="veh82" type="veh_passenger" depart="272.92" departLane="best" departSpeed="max">
        <route edges="E9 E0 E2 E20"/>
    </vehicle>
    <vehicle id="veh83" type="veh_passenger" depart="276.25" departLane="best">
        <route edges="E0 E6 E14"/>
    </vehicle>
    <vehicle id="veh84" type="veh_passenger" depart="279.58" departLane="best" departSpeed="max">
        <route edges="E18 E0 E6 E13"/>
    </vehicle>
    <vehicle id="veh85" type="veh_passenger" depart="282.91" departLane="best">
        <route edges="E3 E6 E13"/>
    </vehicle>
    <vehicle id="veh86" type="veh_passenger" depart="286.23" departLane="best" departSpeed="max">
        <route edges="E21 E3 E6 E14"/>
    </vehicle>
    <vehicle id="veh87" type="veh_passenger" depart="289.56" departLane="best" departSpeed="max">
        <route edges="E23 E3 E6 E13"/>
    </vehicle>
    <vehicle id="veh88" type="veh_passenger" depart="292.89" departLane="best" departSpeed="max">
        <route edges="E12 E7 E4 E17"/>
    </vehicle>
    <vehicle id="veh89" type="veh_passenger" depart="296.22" departLane="best" departSpeed="max">
        <route edges="E12 E7 E2 E22"/>
    </vehicle>
    <vehicle id="veh90" type="veh_passenger" depart="299.55" departLane="best" departSpeed="max">
        <route edges="E11 E5 E1 E15"/>
    </vehicle>
    <vehicle id="veh91" type="veh_passenger" depart="302.88" departLane="best" departSpeed="max">
        <route edges="E12 E7 E1 E8"/>
    </vehicle>
    <vehicle id="veh92" type="veh_passenger" depart="306.20" departLane="best" departSpeed="max">
        <route edges="E19 E7 E4"/>
    </vehicle>
    <vehicle id="veh93" type="veh_passenger" depart="309.53" departLane="best" departSpeed="max">
        <route edges="E21 E3 E1 E8"/>
    </vehicle>
    <vehicle id="veh94" type="veh_passenger" depart="312.86" departLane="best" departSpeed="max">
        <route edges="E21 E3 E1 E8"/>
    </vehicle>
    <vehicle id="veh95" type="veh_passenger" depart="316.19" departLane="best">
        <route edges="E7 E2 E20"/>
    </vehicle>
    <vehicle id="veh96" type="veh_passenger" depart="319.52" departLane="best">
        <route edges="E7 E2 E22"/>
    </vehicle>
    <vehicle id="veh97" type="veh_passenger" depart="322.85" departLane="best" departSpeed="max">
        <route edges="E12 E7 E2 E20"/>
    </vehicle>
    <vehicle id="veh98" type="veh_passenger" depart="326.17" departLane="best" departSpeed="max">
        <route edges="E21 E3 E6 E14"/>
    </vehicle>
    <vehicle id="veh99" type="veh_passenger" depart="329.50" departLane="best" departSpeed="max">
        <route edges="E19 E7 E4 E10"/>
    </vehicle>
    <vehicle id="veh100" type="veh_passenger" depart="332.83" departLane="best" departSpeed="max">
        <route edges="E12 E7 E2 E22"/>
    </vehicle>
    <vehicle id="veh101" type="veh_passenger" depart="336.16" departLane="best" departSpeed="max">
        <route edges="E18 E0 E6 E13"/>
    </vehicle>
    <vehicle id="veh102" type="veh_passenger" depart="339.49" departLane="best" departSpeed="max">
        <route edges="E16 E5 E2 E22"/>
    </vehicle>
    <vehicle id="veh103" type="veh_passenger" depart="342.82" departLane="best" departSpeed="max">
        <route edges="E18 E0 E6 E13"/>
    </vehicle>
    <vehicle id="veh104" type="veh_passenger" depart="346.14" departLane="best" departSpeed="max">
        <route edges="E19 E7 E4 E10"/>
    </vehicle>
    <vehicle id="veh105" type="veh_passenger" depart="349.47" departLane="best" departSpeed="max">
        <route edges="E23 E3 E1 E15"/>
    </vehicle>
    <vehicle id="veh106" type="veh_passenger" depart="352.80" departLane="best">
        <route edges="E0 E4 E17"/>
    </vehicle>
    <vehicle id="veh107" type="veh_passenger" depart="356.13" departLane="best" departSpeed="max">
        <route edges="E9 E0 E6 E13"/>
    </vehicle>
    <vehicle id="veh108" type="veh_passenger" depart="359.46" departLane="best">
        <route edges="E0 E6 E13"/>
    </vehicle>
    <vehicle id="veh109" type="veh_passenger" depart="362.79" departLane="best" departSpeed="max">
        <route edges="E11 E5 E2 E20"/>
    </vehicle>
    <vehicle id="veh110" type="veh_passenger" depart="366.11" departLane="best" departSpeed="max">
        <route edges="E12 E7 E2 E20"/>
    </vehicle>
    <vehicle id="veh111" type="veh_passenger" depart="369.44" departLane="best" departSpeed="max">
        <route edges="E16 E5 E2 E22"/>
    </vehicle>
    <vehicle id="veh112" type="veh_passenger" depart="372.77" departLane="best" departSpeed="max">
        <route edges="E11 E5 E1 E8"/>
    </vehicle>
    <vehicle id="veh113" type="veh_passenger" depart="376.10" departLane="best">
        <route edges="E3 E6 E14"/>
    </vehicle>
    <vehicle id="veh114" type="veh_passenger" depart="379.43" departLane="best" departSpeed="max">
        <route edges="E11 E5 E1 E8"/>
    </vehicle>
    <vehicle id="veh115" type="veh_passenger" depart="382.76" departLane="best" departSpeed="max">
        <route edges="E23 E3 E1 E15"/>
    </vehicle>
    <vehicle id="veh116" type="veh_passenger" depart="386.08" departLane="best" departSpeed="max">
        <route edges="E23 E3 E1 E8"/>
    </vehicle>
    <vehicle id="veh117" type="veh_passenger" depart="389.41" departLane="best" departSpeed="max">
        <route edges="E19 E7 E4 E17"/>
    </vehicle>
    <vehicle id="veh118" type="veh_passenger" depart="392.74" departLane="best" departSpeed="max">
        <route edges="E19 E7 E2 E20"/>
    </vehicle>
    <vehicle id="veh119" type="veh_passenger" depart="396.07" departLane="best" departSpeed="max">
        <route edges="E12 E7 E4"/>
    </vehicle>
    <vehicle id="veh120" type="veh_passenger" depart="399.40" departLane="best" departSpeed="max">
        <route edges="E11 E5 E2 E22"/>
    </vehicle>
    <vehicle id="veh121" type="veh_passenger" depart="402.73" departLane="best" departSpeed="max">
        <route edges="E11 E5 E6 E13"/>
    </vehicle>
    <vehicle id="veh122" type="veh_passenger" depart="406.05" departLane="best" departSpeed="max">
        <route edges="E12 E7 E4 E10"/>
    </vehicle>
    <vehicle id="veh123" type="veh_passenger" depart="409.38" departLane="best" departSpeed="max">
        <route edges="E9 E0 E4 E17"/>
    </vehicle>
    <vehicle id="veh124" type="veh_passenger" depart="412.71" departLane="best" departSpeed="max">
        <route edges="E12 E7 E1"/>
    </vehicle>
    <vehicle id="veh125" type="veh_passenger" depart="416.04" departLane="best" departSpeed="max">
        <route edges="E9 E0 E4 E17"/>
    </vehicle>
    <vehicle id="veh126" type="veh_passenger" depart="419.37" departLane="best" departSpeed="max">
        <route edges="E11 E5 E2 E20"/>
    </vehicle>
    <vehicle id="veh127" type="veh_passenger" depart="422.70" departLane="best" departSpeed="max">
        <route edges="E9 E0 E4 E10"/>
    </vehicle>
    <vehicle id="veh128" type="veh_passenger" depart="426.02" departLane="best">
        <route edges="E3 E6 E13"/>
    </vehicle>
    <vehicle id="veh129" type="veh_passenger" depart="429.35" departLane="best" departSpeed="max">
        <route edges="E19 E7 E4 E17"/>
    </vehicle>
    <vehicle id="veh130" type="veh_passenger" depart="432.68" departLane="best" departSpeed="max">
        <route edges="E18 E0 E6"/>
    </vehicle>
    <vehicle id="veh131" type="veh_passenger" depart="436.01" departLane="best" departSpeed="max">
        <route edges="E9 E0 E6 E14"/>
    </vehicle>
    <vehicle id="veh132" type="veh_passenger" depart="439.34" departLane="best" departSpeed="max">
        <route edges="E23 E3 E1 E8"/>
    </vehicle>
    <vehicle id="veh133" type="veh_passenger" depart="442.67" departLane="best" departSpeed="max">
        <route edges="E21 E3 E6 E13"/>
    </vehicle>
    <vehicle id="veh134" type="veh_passenger" depart="445.99" departLane="best" departSpeed="max">
        <route edges="E12 E7 E4 E10"/>
    </vehicle>
    <vehicle id="veh135" type="veh_passenger" depart="449.32" departLane="best">
        <route edges="E0 E4 E17"/>
    </vehicle>
    <vehicle id="veh136" type="veh_passenger" depart="452.65" departLane="best" departSpeed="max">
        <route edges="E21 E3 E6 E14"/>
    </vehicle>
    <vehicle id="veh137" type="veh_passenger" depart="455.98" departLane="best" departSpeed="max">
        <route edges="E12 E7 E2 E22"/>
    </vehicle>
    <vehicle id="veh138" type="veh_passenger" depart="459.31" departLane="best" departSpeed="max">
        <route edges="E23 E3 E1 E8"/>
    </vehicle>
    <vehicle id="veh139" type="veh_passenger" depart="462.64" departLane="best" departSpeed="max">
        <route edges="E21 E3 E1 E8"/>
    </vehicle>
    <vehicle id="veh140" type="veh_passenger" depart="465.96" departLane="best" departSpeed="max">
        <route edges="E21 E3 E1 E8"/>
    </vehicle>
    <vehicle id="veh141" type="veh_passenger" depart="469.29" departLane="best" departSpeed="max">
        <route edges="E9 E0 E4 E17"/>
    </vehicle>
    <vehicle id="veh142" type="veh_passenger" depart="472.62" departLane="best" departSpeed="max">
        <route edges="E19 E7 E4 E10"/>
    </vehicle>
    <vehicle id="veh143" type="veh_passenger" depart="475.95" departLane="best" departSpeed="max">
        <route edges="E11 E5 E1 E8"/>
    </vehicle>
    <vehicle id="veh144" type="veh_passenger" depart="479.28" departLane="best" departSpeed="max">
        <route edges="E19 E7 E2 E20"/>
    </vehicle>
    <vehicle id="veh145" type="veh_passenger" depart="482.61" departLane="best" departSpeed="max">
        <route edges="E9 E0 E6 E13"/>
    </vehicle>
    <vehicle id="veh146" type="veh_passenger" depart="485.93" departLane="best" departSpeed="max">
        <route edges="E19 E7 E4 E10"/>
    </vehicle>
    <vehicle id="veh147" type="veh_passenger" depart="489.26" departLane="best" departSpeed="max">
        <route edges="E21 E3 E6"/>
    </vehicle>
    <vehicle id="veh148" type="veh_passenger" depart="492.59" departLane="best" departSpeed="max">
        <route edges="E16 E5 E2 E22"/>
    </vehicle>
    <vehicle id="veh149" type="veh_passenger" depart="495.92" departLane="best" departSpeed="max">
        <route edges="E16 E5 E1 E8"/>
    </vehicle>
    <vehicle id="veh150" type="veh_passenger" depart="499.25" departLane="best" departSpeed="max">
        <route edges="E16 E5 E1 E8"/>
    </vehicle>
    <vehicle id="veh151" type="veh_passenger" depart="502.58" departLane="best" departSpeed="max">
        <route edges="E9 E0 E2 E20"/>
    </vehicle>
    <vehicle id="veh152" type="veh_passenger" depart="505.90" departLane="best" departSpeed="max">
        <route edges="E23 E3 E6 E13"/>
    </vehicle>
    <vehicle id="veh153" type="veh_passenger" depart="509.23" departLane="best" departSpeed="max">
        <route edges="E11 E5 E1 E8"/>
    </vehicle>
    <vehicle id="veh154" type="veh_passenger" depart="512.56" departLane="best" departSpeed="max">
        <route edges="E21 E3 E6 E13"/>
    </vehicle>
    <vehicle id="veh155" type="veh_passenger" depart="515.89" departLane="best" departSpeed="max">
        <route edges="E12 E7 E2"/>
    </vehicle>
    <vehicle id="veh156" type="veh_passenger" depart="519.22" departLane="best" departSpeed="max">
        <route edges="E19 E7 E4 E10"/>
    </vehicle>
    <vehicle id="veh157" type="veh_passenger" depart="522.54" departLane="best" departSpeed="max">
        <route edges="E9 E0 E6 E13"/>
    </vehicle>
    <vehicle id="veh158" type="veh_passenger" depart="525.87" departLane="best" departSpeed="max">
        <route edges="E9 E0 E4 E17"/>
    </vehicle>
    <vehicle id="veh159" type="veh_passenger" depart="529.20" departLane="best" departSpeed="max">
        <route edges="E19 E7 E4"/>
    </vehicle>
    <vehicle id="veh160" type="veh_passenger" depart="532.53" departLane="best" departSpeed="max">
        <route edges="E21 E3 E1 E8"/>
    </vehicle>
    <vehicle id="veh161" type="veh_passenger" depart="535.86" departLane="best" departSpeed="max">
        <route edges="E19 E7 E4 E10"/>
    </vehicle>
    <vehicle id="veh162" type="veh_passenger" depart="539.19" departLane="best" departSpeed="max">
        <route edges="E12 E7 E2 E22"/>
    </vehicle>
    <vehicle id="veh163" type="veh_passenger" depart="542.51" departLane="best" departSpeed="max">
        <route edges="E9 E0 E4 E17"/>
    </vehicle>
    <vehicle id="veh164" type="veh_passenger" depart="545.84" departLane="best" departSpeed="max">
        <route edges="E21 E3 E6"/>
    </vehicle>
    <vehicle id="veh165" type="veh_passenger" depart="549.17" departLane="best" departSpeed="max">
        <route edges="E19 E7 E4 E17"/>
    </vehicle>
    <vehicle id="veh166" type="veh_passenger" depart="552.50" departLane="best" departSpeed="max">
        <route edges="E23 E3 E1 E15"/>
    </vehicle>
    <vehicle id="veh167" type="veh_passenger" depart="555.83" departLane="best" departSpeed="max">
        <route edges="E21 E3 E6 E13"/>
    </vehicle>
    <vehicle id="veh168" type="veh_passenger" depart="559.16" departLane="best" departSpeed="max">
        <route edges="E16 E5 E2 E22"/>
    </vehicle>
    <vehicle id="veh169" type="veh_passenger" depart="562.48" departLane="best" departSpeed="max">
        <route edges="E21 E3 E6"/>
    </vehicle>
    <vehicle id="veh170" type="veh_passenger" depart="565.81" departLane="best" departSpeed="max">
        <route edges="E18 E0 E6 E14"/>
    </vehicle>
    <vehicle id="veh171" type="veh_passenger" depart="569.14" departLane="best" departSpeed="max">
        <route edges="E11 E5 E2 E20"/>
    </vehicle>
    <vehicle id="veh172" type="veh_passenger" depart="572.47" departLane="best" departSpeed="max">
        <route edges="E23 E3 E1 E15"/>
    </vehicle>
    <vehicle id="veh173" type="veh_passenger" depart="575.80" departLane="best" departSpeed="max">
        <route edges="E11 E5 E2 E20"/>
    </vehicle>
    <vehicle id="veh174" type="veh_passenger" depart="579.13" departLane="best" departSpeed="max">
        <route edges="E23 E3 E1 E8"/>
    </vehicle>
    <vehicle id="veh175" type="veh_passenger" depart="582.45" departLane="best" departSpeed="max">
        <route edges="E12 E7 E4 E10"/>
    </vehicle>
    <vehicle id="veh176" type="veh_passenger" depart="585.78" departLane="best" departSpeed="max">
        <route edges="E12 E7 E1 E8"/>
    </vehicle>
    <vehicle id="veh177" type="veh_passenger" depart="589.11" departLane="best">
        <route edges="E7 E2 E22"/>
    </vehicle>
    <vehicle id="veh178" type="veh_passenger" depart="592.44" departLane="best" departSpeed="max">
        <route edges="E16 E5 E2 E20"/>
    </vehicle>
    <vehicle id="veh179" type="veh_passenger" depart="595.77" departLane="best" departSpeed="max">
        <route edges="E21 E3 E1 E15"/>
    </vehicle>
    <vehicle id="veh180" type="veh_passenger" depart="599.10" departLane="best" departSpeed="max">
        <route edges="E9 E0 E6 E14"/>
    </vehicle>
    <vehicle id="veh181" type="veh_passenger" depart="602.42" departLane="best" departSpeed="max">
        <route edges="E9 E0 E2 E20"/>
    </vehicle>
    <vehicle id="veh182" type="veh_passenger" depart="605.75" departLane="best" departSpeed="max">
        <route edges="E21 E3 E1 E15"/>
    </vehicle>
    <vehicle id="veh183" type="veh_passenger" depart="609.08" departLane="best" departSpeed="max">
        <route edges="E21 E3 E1 E8"/>
    </vehicle>
    <vehicle id="veh184" type="veh_passenger" depart="612.41" departLane="best" departSpeed="max">
        <route edges="E21 E3 E6 E14"/>
    </vehicle>
    <vehicle id="veh185" type="veh_passenger" depart="615.74" departLane="best" departSpeed="max">
        <route edges="E16 E5 E2 E22"/>
    </vehicle>
    <vehicle id="veh186" type="veh_passenger" depart="619.07" departLane="best" departSpeed="max">
        <route edges="E12 E7 E4 E10"/>
    </vehicle>