<?xml version="1.0" encoding="UTF-8"?>

<!-- generated on 2025-07-17 16:25:43 by Eclipse SUMO duarouter Version 1.23.1
<duarouterConfiguration xmlns:xsi="http://www.w3.org/2001/XMLSchema-instance" xsi:noNamespaceSchemaLocation="http://sumo.dlr.de/xsd/duarouterConfiguration.xsd">

    <input>
        <net-file value="osm.net.xml.gz"/>
        <route-files value="osm.res_ped.trips.xml"/>
    </input>

    <output>
        <output-file value="osm.res_ped.rou.xml"/>
    </output>

</duarouterConfiguration>
-->

<routes xmlns:xsi="http://www.w3.org/2001/XMLSchema-instance" xsi:noNamespaceSchemaLocation="http://sumo.dlr.de/xsd/routes_file.xsd">
    <vType id="res_ped_pedestrian" vClass="pedestrian"/>
    <vehicle id="res_ped13" type="res_ped_pedestrian" depart="117.00" departLane="best">
        <route edges="E1"/>
    </vehicle>
    <vehicle id="res_ped119" type="res_ped_pedestrian" depart="1071.00" departLane="best">
        <route edges="E3"/>
    </vehicle>
    <vehicle id="res_ped130" type="res_ped_pedestrian" depart="1170.00" departLane="best">
        <route edges="E6"/>
    </vehicle>
    <vehicle id="res_ped167" type="res_ped_pedestrian" depart="1503.00" departLane="best">
        <route edges="E6"/>
    </vehicle>
    <vehicle id="res_ped214" type="res_ped_pedestrian" depart="1926.00" departLane="best">
        <route edges="E4"/>
    </vehicle>
    <vehicle id="res_ped282" type="res_ped_pedestrian" depart="2538.00" departLane="best">
        <route edges="E5"/>
    </vehicle>
    <vehicle id="res_ped367" type="res_ped_pedestrian" depart="3303.00" departLane="best">
        <route edges="E3"/>
    </vehicle>
    <vehicle id="res_ped396" type="res_ped_pedestrian" depart="3564.00" departLane="best">
        <route edges="E6"/>
    </vehicle>
</routes>
