<?xml version="1.0" encoding="UTF-8"?>

<!-- generated on 2025-07-13 19:31:21.774574 by randomTrips.py v1_22_0+0002-63e50f52594
<configuration>
    <net-file value="osm.net.xml.gz"/>
    <output-trip-file value="osm.res_truck.trips.xml"/>
    <prefix value="res_truck"/>
    <trip-attributes value="departLane='best'"/>
    <fringe-start-attributes value="departSpeed='max'"/>
    <vehicle-class value="truck"/>
    <vclass value="truck"/>
    <remove-loops value="True"/>
    <validate value="True"/>
    <insertion-rate value="200.0"/>
</configuration>
-->

<!-- generated on 2025-07-13 19:31:21 by Eclipse SUMO duarouter Version 1.22.0
<duarouterConfiguration xmlns:xsi="http://www.w3.org/2001/XMLSchema-instance" xsi:noNamespaceSchemaLocation="http://sumo.dlr.de/xsd/duarouterConfiguration.xsd">

    <input>
        <net-file value="osm.net.xml.gz"/>
        <route-files value="osm.res_truck.trips.xml"/>
    </input>

    <output>
        <output-file value="osm.res_truck.trips.xml.tmp"/>
        <alternatives-output value="NUL"/>
        <write-trips value="true"/>
    </output>

    <processing>
        <remove-loops value="true"/>
    </processing>

    <time>
        <begin value="0.0"/>
        <end value="3600.0"/>
    </time>

    <report>
        <no-warnings value="true"/>
        <ignore-errors value="true"/>
        <no-step-log value="true"/>
    </report>

</duarouterConfiguration>
-->

<routes xmlns:xsi="http://www.w3.org/2001/XMLSchema-instance" xsi:noNamespaceSchemaLocation="http://sumo.dlr.de/xsd/routes_file.xsd">
    <vType id="res_truck_truck" vClass="truck"/>
    <trip id="res_truck1" type="res_truck_truck" depart="18.00" departLane="best" departSpeed="max" from="E16" to="E13"/>
    <trip id="res_truck3" type="res_truck_truck" depart="54.00" departLane="best" from="E7" to="E1"/>
    <trip id="res_truck5" type="res_truck_truck" depart="90.00" departLane="best" departSpeed="max" from="E12" to="E20"/>
    <trip id="res_truck6" type="res_truck_truck" depart="108.00" departLane="best" from="E0" to="E13"/>
    <trip id="res_truck8" type="res_truck_truck" depart="144.00" departLane="best" departSpeed="max" from="E12" to="E22"/>
    <trip id="res_truck11" type="res_truck_truck" depart="198.00" departLane="best" departSpeed="max" from="E18" to="E10"/>
    <trip id="res_truck12" type="res_truck_truck" depart="216.00" departLane="best" departSpeed="max" from="E9" to="E15"/>
    <trip id="res_truck13" type="res_truck_truck" depart="234.00" departLane="best" from="E1" to="E1"/>
    <trip id="res_truck16" type="res_truck_truck" depart="288.00" departLane="best" departSpeed="max" from="E21" to="E8"/>
    <trip id="res_truck17" type="res_truck_truck" depart="306.00" departLane="best" departSpeed="max" from="E19" to="E20"/>
    <trip id="res_truck21" type="res_truck_truck" depart="378.00" departLane="best" departSpeed="max" from="E12" to="E14"/>
    <trip id="res_truck24" type="res_truck_truck" depart="432.00" departLane="best" from="E3" to="E15"/>
    <trip id="res_truck25" type="res_truck_truck" depart="450.00" departLane="best" departSpeed="max" from="E18" to="E13"/>
    <trip id="res_truck29" type="res_truck_truck" depart="522.00" departLane="best" departSpeed="max" from="E11" to="E17"/>
    <trip id="res_truck31" type="res_truck_truck" depart="558.00" departLane="best" departSpeed="max" from="E21" to="E3"/>
    <trip id="res_truck34" type="res_truck_truck" depart="612.00" departLane="best" departSpeed="max" from="E18" to="E14"/>
    <trip id="res_truck35" type="res_truck_truck" depart="630.00" departLane="best" departSpeed="max" from="E12" to="E8"/>
    <trip id="res_truck36" type="res_truck_truck" depart="648.00" departLane="best" from="E7" to="E15"/>
    <trip id="res_truck37" type="res_truck_truck" depart="666.00" departLane="best" from="E3" to="E17"/>
    <trip id="res_truck38" type="res_truck_truck" depart="684.00" departLane="best" from="E7" to="E2"/>
    <trip id="res_truck39" type="res_truck_truck" depart="702.00" departLane="best" departSpeed="max" from="E16" to="E13"/>
    <trip id="res_truck40" type="res_truck_truck" depart="720.00" departLane="best" departSpeed="max" from="E21" to="E14"/>
    <trip id="res_truck42" type="res_truck_truck" depart="756.00" departLane="best" departSpeed="max" from="E19" to="E13"/>
    <trip id="res_truck43" type="res_truck_truck" depart="774.00" departLane="best" departSpeed="max" from="E9" to="E20"/>
    <trip id="res_truck48" type="res_truck_truck" depart="864.00" departLane="best" departSpeed="max" from="E9" to="E20"/>
    <trip id="res_truck49" type="res_truck_truck" depart="882.00" departLane="best" departSpeed="max" from="E9" to="E6"/>
    <trip id="res_truck50" type="res_truck_truck" depart="900.00" departLane="best" from="E0" to="E4"/>
    <trip id="res_truck56" type="res_truck_truck" depart="1008.00" departLane="best" departSpeed="max" from="E21" to="E10"/>
    <trip id="res_truck59" type="res_truck_truck" depart="1062.00" departLane="best" departSpeed="max" from="E23" to="E10"/>
    <trip id="res_truck60" type="res_truck_truck" depart="1080.00" departLane="best" from="E5" to="E20"/>
    <trip id="res_truck61" type="res_truck_truck" depart="1098.00" departLane="best" from="E5" to="E20"/>
    <trip id="res_truck66" type="res_truck_truck" depart="1188.00" departLane="best" from="E7" to="E8"/>
    <trip id="res_truck70" type="res_truck_truck" depart="1260.00" departLane="best" from="E2" to="E20"/>
    <trip id="res_truck71" type="res_truck_truck" depart="1278.00" departLane="best" departSpeed="max" from="E16" to="E6"/>
    <trip id="res_truck72" type="res_truck_truck" depart="1296.00" departLane="best" departSpeed="max" from="E19" to="E13"/>
    <trip id="res_truck73" type="res_truck_truck" depart="1314.00" departLane="best" departSpeed="max" from="E21" to="E4"/>
    <trip id="res_truck74" type="res_truck_truck" depart="1332.00" departLane="best" departSpeed="max" from="E12" to="E14"/>
    <trip id="res_truck76" type="res_truck_truck" depart="1368.00" departLane="best" from="E2" to="E20"/>
    <trip id="res_truck78" type="res_truck_truck" depart="1404.00" departLane="best" departSpeed="max" from="E18" to="E22"/>
    <trip id="res_truck81" type="res_truck_truck" depart="1458.00" departLane="best" departSpeed="max" from="E12" to="E7"/>
    <trip id="res_truck84" type="res_truck_truck" depart="1512.00" departLane="best" departSpeed="max" from="E12" to="E10"/>
    <trip id="res_truck85" type="res_truck_truck" depart="1530.00" departLane="best" from="E7" to="E22"/>
    <trip id="res_truck87" type="res_truck_truck" depart="1566.00" departLane="best" from="E5" to="E13"/>
    <trip id="res_truck89" type="res_truck_truck" depart="1602.00" departLane="best" departSpeed="max" from="E19" to="E2"/>
    <trip id="res_truck92" type="res_truck_truck" depart="1656.00" departLane="best" departSpeed="max" from="E19" to="E15"/>
    <trip id="res_truck93" type="res_truck_truck" depart="1674.00" departLane="best" from="E6" to="E13"/>
    <trip id="res_truck94" type="res_truck_truck" depart="1692.00" departLane="best" departSpeed="max" from="E12" to="E2"/>
    <trip id="res_truck95" type="res_truck_truck" depart="1710.00" departLane="best" departSpeed="max" from="E19" to="E14"/>
    <trip id="res_truck96" type="res_truck_truck" depart="1728.00" departLane="best" departSpeed="max" from="E12" to="E7"/>
    <trip id="res_truck99" type="res_truck_truck" depart="1782.00" departLane="best" departSpeed="max" from="E9" to="E6"/>
    <trip id="res_truck104" type="res_truck_truck" depart="1872.00" departLane="best" departSpeed="max" from="E19" to="E8"/>
    <trip id="res_truck105" type="res_truck_truck" depart="1890.00" departLane="best" departSpeed="max" from="E16" to="E5"/>
    <trip id="res_truck108" type="res_truck_truck" depart="1944.00" departLane="best" departSpeed="max" from="E21" to="E4"/>
    <trip id="res_truck109" type="res_truck_truck" depart="1962.00" departLane="best" departSpeed="max" from="E11" to="E14"/>
    <trip id="res_truck110" type="res_truck_truck" depart="1980.00" departLane="best" departSpeed="max" from="E9" to="E22"/>
    <trip id="res_truck111" type="res_truck_truck" depart="1998.00" departLane="best" departSpeed="max" from="E21" to="E4"/>
    <trip id="res_truck112" type="res_truck_truck" depart="2016.00" departLane="best" from="E0" to="E22"/>
    <trip id="res_truck113" type="res_truck_truck" depart="2034.00" departLane="best" departSpeed="max" from="E21" to="E6"/>
    <trip id="res_truck114" type="res_truck_truck" depart="2052.00" departLane="best" departSpeed="max" from="E11" to="E8"/>
    <trip id="res_truck116" type="res_truck_truck" depart="2088.00" departLane="best" departSpeed="max" from="E23" to="E3"/>
    <trip id="res_truck117" type="res_truck_truck" depart="2106.00" departLane="best" departSpeed="max" from="E12" to="E1"/>
    <trip id="res_truck119" type="res_truck_truck" depart="2142.00" departLane="best" departSpeed="max" from="E23" to="E22"/>
    <trip id="res_truck120" type="res_truck_truck" depart="2160.00" departLane="best" departSpeed="max" from="E19" to="E22"/>
    <trip id="res_truck122" type="res_truck_truck" depart="2196.00" departLane="best" departSpeed="max" from="E12" to="E4"/>
    <trip id="res_truck123" type="res_truck_truck" depart="2214.00" departLane="best" departSpeed="max" from="E12" to="E17"/>
    <trip id="res_truck124" type="res_truck_truck" depart="2232.00" departLane="best" from="E3" to="E14"/>
    <trip id="res_truck130" type="res_truck_truck" depart="2340.00" departLane="best" from="E7" to="E7"/>
    <trip id="res_truck131" type="res_truck_truck" depart="2358.00" departLane="best" departSpeed="max" from="E18" to="E10"/>
    <trip id="res_truck133" type="res_truck_truck" depart="2394.00" departLane="best" departSpeed="max" from="E23" to="E8"/>
    <trip id="res_truck135" type="res_truck_truck" depart="2430.00" departLane="best" from="E6" to="E14"/>
    <trip id="res_truck136" type="res_truck_truck" depart="2448.00" departLane="best" from="E3" to="E8"/>
    <trip id="res_truck137" type="res_truck_truck" depart="2466.00" departLane="best" departSpeed="max" from="E11" to="E1"/>
    <trip id="res_truck139" type="res_truck_truck" depart="2502.00" departLane="best" departSpeed="max" from="E16" to="E22"/>
    <trip id="res_truck141" type="res_truck_truck" depart="2538.00" departLane="best" from="E3" to="E14"/>
    <trip id="res_truck144" type="res_truck_truck" depart="2592.00" departLane="best" departSpeed="max" from="E19" to="E14"/>
    <trip id="res_truck146" type="res_truck_truck" depart="2628.00" departLane="best" from="E3" to="E14"/>
    <trip id="res_truck150" type="res_truck_truck" depart="2700.00" departLane="best" from="E7" to="E20"/>
    <trip id="res_truck154" type="res_truck_truck" depart="2772.00" departLane="best" from="E5" to="E6"/>
    <trip id="res_truck156" type="res_truck_truck" depart="2808.00" departLane="best" departSpeed="max" from="E12" to="E1"/>
    <trip id="res_truck158" type="res_truck_truck" depart="2844.00" departLane="best" departSpeed="max" from="E19" to="E22"/>
    <trip id="res_truck162" type="res_truck_truck" depart="2916.00" departLane="best" from="E0" to="E4"/>
    <trip id="res_truck164" type="res_truck_truck" depart="2952.00" departLane="best" from="E5" to="E6"/>
    <trip id="res_truck165" type="res_truck_truck" depart="2970.00" departLane="best" from="E5" to="E14"/>
    <trip id="res_truck166" type="res_truck_truck" depart="2988.00" departLane="best" from="E5" to="E1"/>
    <trip id="res_truck167" type="res_truck_truck" depart="3006.00" departLane="best" from="E6" to="E6"/>
    <trip id="res_truck170" type="res_truck_truck" depart="3060.00" departLane="best" from="E5" to="E13"/>
    <trip id="res_truck171" type="res_truck_truck" depart="3078.00" departLane="best" from="E0" to="E13"/>
    <trip id="res_truck172" type="res_truck_truck" depart="3096.00" departLane="best" departSpeed="max" from="E18" to="E6"/>
    <trip id="res_truck173" type="res_truck_truck" depart="3114.00" departLane="best" departSpeed="max" from="E9" to="E14"/>
    <trip id="res_truck174" type="res_truck_truck" depart="3132.00" departLane="best" from="E3" to="E17"/>
    <trip id="res_truck175" type="res_truck_truck" depart="3150.00" departLane="best" departSpeed="max" from="E9" to="E20"/>
    <trip id="res_truck177" type="res_truck_truck" depart="3186.00" departLane="best" departSpeed="max" from="E9" to="E10"/>
    <trip id="res_truck178" type="res_truck_truck" depart="3204.00" departLane="best" departSpeed="max" from="E9" to="E14"/>
    <trip id="res_truck181" type="res_truck_truck" depart="3258.00" departLane="best" departSpeed="max" from="E23" to="E20"/>
    <trip id="res_truck182" type="res_truck_truck" depart="3276.00" departLane="best" departSpeed="max" from="E19" to="E22"/>
    <trip id="res_truck185" type="res_truck_truck" depart="3330.00" departLane="best" departSpeed="max" from="E21" to="E4"/>
    <trip id="res_truck188" type="res_truck_truck" depart="3384.00" departLane="best" from="E3" to="E15"/>
    <trip id="res_truck189" type="res_truck_truck" depart="3402.00" departLane="best" departSpeed="max" from="E18" to="E6"/>
    <trip id="res_truck191" type="res_truck_truck" depart="3438.00" departLane="best" departSpeed="max" from="E16" to="E17"/>
    <trip id="res_truck192" type="res_truck_truck" depart="3456.00" departLane="best" departSpeed="max" from="E19" to="E14"/>
    <trip id="res_truck193" type="res_truck_truck" depart="3474.00" departLane="best" departSpeed="max" from="E11" to="E17"/>
    <trip id="res_truck195" type="res_truck_truck" depart="3510.00" departLane="best" from="E7" to="E22"/>
    <trip id="res_truck196" type="res_truck_truck" depart="3528.00" departLane="best" departSpeed="max" from="E16" to="E20"/>
    <trip id="res_truck197" type="res_truck_truck" depart="3546.00" departLane="best" from="E0" to="E14"/>
    <trip id="res_truck198" type="res_truck_truck" depart="3564.00" departLane="best" departSpeed="max" from="E19" to="E22"/>
</routes>
