<?xml version="1.0" encoding="UTF-8"?>

<!-- generated on 2025-07-12 21:49:10.399474 by randomTrips.py v1_23_1+0000-676720d13f6
<configuration>
    <net-file value="osm.net.xml.gz"/>
    <output-trip-file value="osm.bicycle.trips.xml"/>
    <route-file value="osm.bicycle.rou.xml"/>
    <prefix value="bike"/>
    <trip-attributes value="departLane=&quot;best&quot;"/>
    <fringe-start-attributes value="departSpeed=&quot;max&quot;"/>
    <vehicle-class value="bicycle"/>
    <fringe-factor value="2"/>
    <edge-permission value="bicycle"/>
    <via-edge-types value="highway.motorway,highway.motorway_link,highway.trunk_link,highway.primary_link,highway.secondary_link,highway.tertiary_link"/>
    <max-distance value="8000.0"/>
    <remove-loops value="True"/>
    <validate value="True"/>
    <insertion-density value="60.0"/>
</configuration>
-->

<routes xmlns:xsi="http://www.w3.org/2001/XMLSchema-instance" xsi:noNamespaceSchemaLocation="http://sumo.dlr.de/xsd/routes_file.xsd">
    <vType id="bike_bicycle" vClass="bicycle"/>
    <trip id="bike0" depart="0.00" from="E16" to="E13" departLane="best" type="bike_bicycle" departSpeed="max"/>
    <trip id="bike1" depart="6.73" from="E7" to="E10" departLane="best" type="bike_bicycle"/>
    <trip id="bike2" depart="13.45" from="E12" to="E2" departLane="best" type="bike_bicycle" departSpeed="max"/>
    <trip id="bike3" depart="20.18" from="E0" to="E13" departLane="best" type="bike_bicycle"/>
    <trip id="bike4" depart="26.91" from="E23" to="E20" departLane="best" type="bike_bicycle" departSpeed="max"/>
    <trip id="bike5" depart="33.63" from="E12" to="E20" departLane="best" type="bike_bicycle" departSpeed="max"/>
    <trip id="bike6" depart="40.36" from="E5" to="E22" departLane="best" type="bike_bicycle"/>
    <trip id="bike7" depart="47.08" from="E18" to="E10" departLane="best" type="bike_bicycle" departSpeed="max"/>
    <trip id="bike8" depart="53.81" from="E9" to="E15" departLane="best" type="bike_bicycle" departSpeed="max"/>
    <trip id="bike9" depart="60.54" from="E18" to="E20" departLane="best" type="bike_bicycle" departSpeed="max"/>
    <trip id="bike10" depart="67.26" from="E5" to="E20" departLane="best" type="bike_bicycle"/>
    <trip id="bike11" depart="73.99" from="E23" to="E1" departLane="best" type="bike_bicycle" departSpeed="max"/>
    <trip id="bike12" depart="80.72" from="E12" to="E14" departLane="best" type="bike_bicycle" departSpeed="max"/>
    <trip id="bike13" depart="87.44" from="E11" to="E14" departLane="best" type="bike_bicycle" departSpeed="max"/>
    <trip id="bike14" depart="94.17" from="E23" to="E15" departLane="best" type="bike_bicycle" departSpeed="max"/>
    <trip id="bike15" depart="100.90" from="E18" to="E13" departLane="best" type="bike_bicycle" departSpeed="max"/>
    <trip id="bike16" depart="107.62" from="E16" to="E8" departLane="best" type="bike_bicycle" departSpeed="max"/>
    <trip id="bike17" depart="114.35" from="E23" to="E20" departLane="best" type="bike_bicycle" departSpeed="max"/>
    <trip id="bike18" depart="121.08" from="E11" to="E15" departLane="best" type="bike_bicycle" departSpeed="max"/>
    <trip id="bike19" depart="127.80" from="E9" to="E22" departLane="best" type="bike_bicycle" departSpeed="max"/>
    <trip id="bike20" depart="134.53" from="E21" to="E22" departLane="best" type="bike_bicycle" departSpeed="max"/>
    <trip id="bike21" depart="141.25" from="E16" to="E14" departLane="best" type="bike_bicycle" departSpeed="max"/>
    <trip id="bike22" depart="147.98" from="E12" to="E8" departLane="best" type="bike_bicycle" departSpeed="max"/>
    <trip id="bike23" depart="154.71" from="E23" to="E15" departLane="best" type="bike_bicycle" departSpeed="max"/>
    <trip id="bike24" depart="161.43" from="E7" to="E17" departLane="best" type="bike_bicycle"/>
    <trip id="bike25" depart="168.16" from="E16" to="E13" departLane="best" type="bike_bicycle" departSpeed="max"/>
    <trip id="bike26" depart="174.89" from="E21" to="E14" departLane="best" type="bike_bicycle" departSpeed="max"/>
    <trip id="bike27" depart="181.61" from="E18" to="E13" departLane="best" type="bike_bicycle" departSpeed="max"/>
    <trip id="bike28" depart="188.34" from="E9" to="E2" departLane="best" type="bike_bicycle" departSpeed="max"/>
    <trip id="bike29" depart="195.07" from="E11" to="E1" departLane="best" type="bike_bicycle" departSpeed="max"/>
    <trip id="bike30" depart="201.79" from="E11" to="E22" departLane="best" type="bike_bicycle" departSpeed="max"/>
    <trip id="bike31" depart="208.52" from="E1" to="E15" departLane="best" type="bike_bicycle"/>
    <trip id="bike32" depart="215.24" from="E9" to="E2" departLane="best" type="bike_bicycle" departSpeed="max"/>
    <trip id="bike33" depart="221.97" from="E9" to="E6" departLane="best" type="bike_bicycle" departSpeed="max"/>
    <trip id="bike34" depart="228.70" from="E16" to="E22" departLane="best" type="bike_bicycle" departSpeed="max"/>
    <trip id="bike35" depart="235.42" from="E11" to="E17" departLane="best" type="bike_bicycle" departSpeed="max"/>
    <trip id="bike36" depart="242.15" from="E19" to="E8" departLane="best" type="bike_bicycle" departSpeed="max"/>
    <trip id="bike37" depart="248.88" from="E16" to="E22" departLane="best" type="bike_bicycle" departSpeed="max"/>
    <trip id="bike38" depart="255.60" from="E21" to="E10" departLane="best" type="bike_bicycle" departSpeed="max"/>
    <trip id="bike39" depart="262.33" from="E0" to="E14" departLane="best" type="bike_bicycle"/>
    <trip id="bike40" depart="269.06" from="E16" to="E1" departLane="best" type="bike_bicycle" departSpeed="max"/>
    <trip id="bike41" depart="275.78" from="E7" to="E8" departLane="best" type="bike_bicycle"/>
    <trip id="bike42" depart="282.51" from="E11" to="E17" departLane="best" type="bike_bicycle" departSpeed="max"/>
    <trip id="bike43" depart="289.24" from="E4" to="E10" departLane="best" type="bike_bicycle"/>
    <trip id="bike44" depart="295.96" from="E19" to="E20" departLane="best" type="bike_bicycle" departSpeed="max"/>
    <trip id="bike45" depart="302.69" from="E16" to="E6" departLane="best" type="bike_bicycle" departSpeed="max"/>
    <trip id="bike46" depart="309.41" from="E19" to="E13" departLane="best" type="bike_bicycle" departSpeed="max"/>
    <trip id="bike47" depart="316.14" from="E12" to="E14" departLane="best" type="bike_bicycle" departSpeed="max"/>
    <trip id="bike48" depart="322.87" from="E9" to="E22" departLane="best" type="bike_bicycle" departSpeed="max"/>
    <trip id="bike49" depart="329.59" from="E19" to="E2" departLane="best" type="bike_bicycle" departSpeed="max"/>
    <trip id="bike50" depart="336.32" from="E11" to="E13" departLane="best" type="bike_bicycle" departSpeed="max"/>
    <trip id="bike51" depart="343.05" from="E18" to="E20" departLane="best" type="bike_bicycle" departSpeed="max"/>
    <trip id="bike52" depart="349.77" from="E12" to="E7" departLane="best" type="bike_bicycle" departSpeed="max"/>
    <trip id="bike53" depart="356.50" from="E12" to="E22" departLane="best" type="bike_bicycle" departSpeed="max"/>
    <trip id="bike54" depart="363.23" from="E12" to="E10" departLane="best" type="bike_bicycle" departSpeed="max"/>
    <trip id="bike55" depart="369.95" from="E9" to="E20" departLane="best" type="bike_bicycle" departSpeed="max"/>
    <trip id="bike56" depart="376.68" from="E19" to="E4" departLane="best" type="bike_bicycle" departSpeed="max"/>
    <trip id="bike57" depart="383.41" from="E5" to="E13" departLane="best" type="bike_bicycle"/>
    <trip id="bike58" depart="390.13" from="E11" to="E17" departLane="best" type="bike_bicycle" departSpeed="max"/>
    <trip id="bike59" depart="396.86" from="E19" to="E17" departLane="best" type="bike_bicycle" departSpeed="max"/>
    <trip id="bike60" depart="403.58" from="E9" to="E10" departLane="best" type="bike_bicycle" departSpeed="max"/>
    <trip id="bike61" depart="410.31" from="E18" to="E15" departLane="best" type="bike_bicycle" departSpeed="max"/>
    <trip id="bike62" depart="417.04" from="E6" to="E13" departLane="best" type="bike_bicycle"/>
    <trip id="bike63" depart="423.76" from="E12" to="E17" departLane="best" type="bike_bicycle" departSpeed="max"/>
    <trip id="bike64" depart="430.49" from="E19" to="E14" departLane="best" type="bike_bicycle" departSpeed="max"/>
    <trip id="bike65" depart="437.22" from="E12" to="E8" departLane="best" type="bike_bicycle" departSpeed="max"/>
    <trip id="bike66" depart="443.94" from="E21" to="E1" departLane="best" type="bike_bicycle" departSpeed="max"/>
    <trip id="bike67" depart="450.67" from="E9" to="E6" departLane="best" type="bike_bicycle" departSpeed="max"/>
    <trip id="bike68" depart="457.40" from="E19" to="E13" departLane="best" type="bike_bicycle" departSpeed="max"/>
    <trip id="bike69" depart="464.12" from="E18" to="E8" departLane="best" type="bike_bicycle" departSpeed="max"/>
    <trip id="bike70" depart="470.85" from="E19" to="E17" departLane="best" type="bike_bicycle" departSpeed="max"/>
    <trip id="bike71" depart="477.57" from="E21" to="E3" departLane="best" type="bike_bicycle" departSpeed="max"/>
    <trip id="bike72" depart="484.30" from="E11" to="E14" departLane="best" type="bike_bicycle" departSpeed="max"/>
    <trip id="bike73" depart="491.03" from="E9" to="E20" departLane="best" type="bike_bicycle" departSpeed="max"/>
    <trip id="bike74" depart="497.75" from="E21" to="E3" departLane="best" type="bike_bicycle" departSpeed="max"/>
    <trip id="bike75" depart="504.48" from="E11" to="E8" departLane="best" type="bike_bicycle" departSpeed="max"/>
    <trip id="bike76" depart="511.21" from="E21" to="E22" departLane="best" type="bike_bicycle" departSpeed="max"/>
    <trip id="bike77" depart="517.93" from="E12" to="E10" departLane="best" type="bike_bicycle" departSpeed="max"/>
    <trip id="bike78" depart="524.66" from="E19" to="E20" departLane="best" type="bike_bicycle" departSpeed="max"/>
    <trip id="bike79" depart="531.39" from="E12" to="E15" departLane="best" type="bike_bicycle" departSpeed="max"/>
    <trip id="bike80" depart="538.11" from="E23" to="E14" departLane="best" type="bike_bicycle" departSpeed="max"/>
    <trip id="bike81" depart="544.84" from="E16" to="E8" departLane="best" type="bike_bicycle" departSpeed="max"/>
    <trip id="bike82" depart="551.57" from="E7" to="E7" departLane="best" type="bike_bicycle"/>
    <trip id="bike83" depart="558.29" from="E18" to="E10" departLane="best" type="bike_bicycle" departSpeed="max"/>
    <trip id="bike84" depart="565.02" from="E21" to="E8" departLane="best" type="bike_bicycle" departSpeed="max"/>
    <trip id="bike85" depart="571.74" from="E5" to="E14" departLane="best" type="bike_bicycle"/>
    <trip id="bike86" depart="578.47" from="E23" to="E8" departLane="best" type="bike_bicycle" departSpeed="max"/>
    <trip id="bike87" depart="585.20" from="E11" to="E20" departLane="best" type="bike_bicycle" departSpeed="max"/>
    <trip id="bike88" depart="591.92" from="E16" to="E20" departLane="best" type="bike_bicycle" departSpeed="max"/>
    <trip id="bike89" depart="598.65" from="E3" to="E13" departLane="best" type="bike_bicycle"/>
    <trip id="bike90" depart="605.38" from="E23" to="E14" departLane="best" type="bike_bicycle" departSpeed="max"/>
    <trip id="bike91" depart="612.10" from="E19" to="E7" departLane="best" type="bike_bicycle" departSpeed="max"/>
    <trip id="bike92" depart="618.83" from="E19" to="E14" departLane="best" type="bike_bicycle" departSpeed="max"/>
    <trip id="bike93" depart="625.56" from="E0" to="E4" departLane="best" type="bike_bicycle"/>
    <trip id="bike94" depart="632.28" from="E23" to="E14" departLane="best" type="bike_bicycle" departSpeed="max"/>
    <trip id="bike95" depart="639.01" from="E7" to="E20" departLane="best" type="bike_bicycle"/>
    <trip id="bike96" depart="645.73" from="E5" to="E6" departLane="best" type="bike_bicycle"/>
    <trip id="bike97" depart="652.46" from="E12" to="E10" departLane="best" type="bike_bicycle" departSpeed="max"/>
    <trip id="bike98" depart="659.19" from="E18" to="E20" departLane="best" type="bike_bicycle" departSpeed="max"/>
    <trip id="bike99" depart="665.91" from="E11" to="E8" departLane="best" type="bike_bicycle" departSpeed="max"/>
    <trip id="bike100" depart="672.64" from="E16" to="E8" departLane="best" type="bike_bicycle" departSpeed="max"/>
    <trip id="bike101" depart="679.37" from="E5" to="E6" departLane="best" type="bike_bicycle"/>
    <trip id="bike102" depart="686.09" from="E5" to="E14" departLane="best" type="bike_bicycle"/>
    <trip id="bike103" depart="692.82" from="E4" to="E10" departLane="best" type="bike_bicycle"/>
    <trip id="bike104" depart="699.55" from="E6" to="E6" departLane="best" type="bike_bicycle"/>
    <trip id="bike105" depart="706.27" from="E19" to="E14" departLane="best" type="bike_bicycle" departSpeed="max"/>
    <trip id="bike106" depart="713.00" from="E5" to="E13" departLane="best" type="bike_bicycle"/>
    <trip id="bike107" depart="719.73" from="E0" to="E13" departLane="best" type="bike_bicycle"/>
    <trip id="bike108" depart="726.45" from="E16" to="E6" departLane="best" type="bike_bicycle" departSpeed="max"/>
    <trip id="bike109" depart="733.18" from="E9" to="E14" departLane="best" type="bike_bicycle" departSpeed="max"/>
    <trip id="bike110" depart="739.90" from="E23" to="E15" departLane="best" type="bike_bicycle" departSpeed="max"/>
    <trip id="bike111" depart="746.63" from="E9" to="E2" departLane="best" type="bike_bicycle" departSpeed="max"/>
    <trip id="bike112" depart="753.36" from="E9" to="E10" departLane="best" type="bike_bicycle" departSpeed="max"/>
    <trip id="bike113" depart="760.08" from="E9" to="E13" departLane="best" type="bike_bicycle" departSpeed="max"/>
    <trip id="bike114" depart="766.81" from="E9" to="E14" departLane="best" type="bike_bicycle" departSpeed="max"/>
    <trip id="bike115" depart="773.54" from="E11" to="E17" departLane="best" type="bike_bicycle" departSpeed="max"/>
    <trip id="bike116" depart="780.26" from="E3" to="E14" departLane="best" type="bike_bicycle"/>
    <trip id="bike117" depart="786.99" from="E18" to="E20" departLane="best" type="bike_bicycle" departSpeed="max"/>
    <trip id="bike118" depart="793.72" from="E23" to="E14" departLane="best" type="bike_bicycle" departSpeed="max"/>
    <trip id="bike119" depart="800.44" from="E16" to="E6" departLane="best" type="bike_bicycle" departSpeed="max"/>
    <trip id="bike120" depart="807.17" from="E3" to="E14" departLane="best" type="bike_bicycle"/>
    <trip id="bike121" depart="813.89" from="E16" to="E15" departLane="best" type="bike_bicycle" departSpeed="max"/>
    <trip id="bike122" depart="820.62" from="E18" to="E14" departLane="best" type="bike_bicycle" departSpeed="max"/>
    <trip id="bike123" depart="827.35" from="E11" to="E17" departLane="best" type="bike_bicycle" departSpeed="max"/>
    <trip id="bike124" depart="834.07" from="E9" to="E22" departLane="best" type="bike_bicycle" departSpeed="max"/>
    <trip id="bike125" depart="840.80" from="E7" to="E20" departLane="best" type="bike_bicycle"/>
    <trip id="bike126" depart="847.53" from="E16" to="E20" departLane="best" type="bike_bicycle" departSpeed="max"/>
    <trip id="bike127" depart="854.25" from="E0" to="E14" departLane="best" type="bike_bicycle"/>
    <trip id="bike128" depart="860.98" from="E19" to="E20" departLane="best" type="bike_bicycle" departSpeed="max"/>
    <trip id="bike129" depart="867.71" from="E23" to="E17" departLane="best" type="bike_bicycle" departSpeed="max"/>
    <trip id="bike130" depart="874.43" from="E19" to="E13" departLane="best" type="bike_bicycle" departSpeed="max"/>
    <trip id="bike131" depart="881.16" from="E19" to="E7" departLane="best" type="bike_bicycle" departSpeed="max"/>
    <trip id="bike132" depart="887.89" from="E5" to="E13" departLane="best" type="bike_bicycle"/>
    <trip id="bike133" depart="894.61" from="E11" to="E2" departLane="best" type="bike_bicycle" departSpeed="max"/>
    <trip id="bike134" depart="901.34" from="E23" to="E15" departLane="best" type="bike_bicycle" departSpeed="max"/>
    <trip id="bike135" depart="908.06" from="E23" to="E13" departLane="best" type="bike_bicycle" departSpeed="max"/>
    <trip id="bike136" depart="914.79" from="E12" to="E17" departLane="best" type="bike_bicycle" departSpeed="max"/>
    <trip id="bike137" depart="921.52" from="E18" to="E22" departLane="best" type="bike_bicycle" departSpeed="max"/>
    <trip id="bike138" depart="928.24" from="E12" to="E22" departLane="best" type="bike_bicycle" departSpeed="max"/>
    <trip id="bike139" depart="934.97" from="E19" to="E13" departLane="best" type="bike_bicycle" departSpeed="max"/>
    <trip id="bike140" depart="941.70" from="E4" to="E4" departLane="best" type="bike_bicycle"/>
    <trip id="bike141" depart="948.42" from="E11" to="E17" departLane="best" type="bike_bicycle" departSpeed="max"/>
    <trip id="bike142" depart="955.15" from="E12" to="E8" departLane="best" type="bike_bicycle" departSpeed="max"/>
    <trip id="bike143" depart="961.88" from="E23" to="E8" departLane="best" type="bike_bicycle" departSpeed="max"/>
    <trip id="bike144" depart="968.60" from="E21" to="E8" departLane="best" type="bike_bicycle" departSpeed="max"/>
    <trip id="bike145" depart="975.33" from="E7" to="E20" departLane="best" type="bike_bicycle"/>
    <trip id="bike146" depart="982.06" from="E5" to="E20" departLane="best" type="bike_bicycle"/>
    <trip id="bike147" depart="988.78" from="E19" to="E14" departLane="best" type="bike_bicycle" departSpeed="max"/>
    <trip id="bike148" depart="995.51" from="E12" to="E22" departLane="best" type="bike_bicycle" departSpeed="max"/>
    <trip id="bike149" depart="1002.23" from="E23" to="E14" departLane="best" type="bike_bicycle" departSpeed="max"/>
    <trip id="bike150" depart="1008.96" from="E16" to="E14" departLane="best" type="bike_bicycle" departSpeed="max"/>
    <trip id="bike151" depart="1015.69" from="E12" to="E22" departLane="best" type="bike_bicycle" departSpeed="max"/>
    <trip id="bike152" depart="1022.41" from="E23" to="E1" departLane="best" type="bike_bicycle" departSpeed="max"/>
    <trip id="bike153" depart="1029.14" from="E18" to="E20" departLane="best" type="bike_bicycle" departSpeed="max"/>
    <trip id="bike154" depart="1035.87" from="E18" to="E13" departLane="best" type="bike_bicycle" departSpeed="max"/>
    <trip id="bike155" depart="1042.59" from="E19" to="E7" departLane="best" type="bike_bicycle" departSpeed="max"/>
    <trip id="bike156" depart="1049.32" from="E21" to="E22" departLane="best" type="bike_bicycle" departSpeed="max"/>
    <trip id="bike157" depart="1056.05" from="E18" to="E0" departLane="best" type="bike_bicycle" departSpeed="max"/>
    <trip id="bike158" depart="1062.77" from="E18" to="E4" departLane="best" type="bike_bicycle" departSpeed="max"/>
    <trip id="bike159" depart="1069.50" from="E18" to="E22" departLane="best" type="bike_bicycle" departSpeed="max"/>
    <trip id="bike160" depart="1076.22" from="E18" to="E10" departLane="best" type="bike_bicycle" departSpeed="max"/>
    <trip id="bike161" depart="1082.95" from="E19" to="E10" departLane="best" type="bike_bicycle" departSpeed="max"/>
    <trip id="bike162" depart="1089.68" from="E18" to="E20" departLane="best" type="bike_bicycle" departSpeed="max"/>
    <trip id="bike163" depart="1096.40" from="E0" to="E22" departLane="best" type="bike_bicycle"/>
    <trip id="bike164" depart="1103.13" from="E11" to="E17" departLane="best" type="bike_bicycle" departSpeed="max"/>
    <trip id="bike165" depart="1109.86" from="E1" to="E15" departLane="best" type="bike_bicycle"/>
    <trip id="bike166" depart="1116.58" from="E12" to="E14" departLane="best" type="bike_bicycle" departSpeed="max"/>
    <trip id="bike167" depart="1123.31" from="E16" to="E1" departLane="best" type="bike_bicycle" departSpeed="max"/>
    <trip id="bike168" depart="1130.04" from="E0" to="E2" departLane="best" type="bike_bicycle"/>
    <trip id="bike169" depart="1136.76" from="E9" to="E15" departLane="best" type="bike_bicycle" departSpeed="max"/>
    <trip id="bike170" depart="1143.49" from="E23" to="E4" departLane="best" type="bike_bicycle" departSpeed="max"/>
    <trip id="bike171" depart="1150.22" from="E23" to="E4" departLane="best" type="bike_bicycle" departSpeed="max"/>
    <trip id="bike172" depart="1156.94" from="E9" to="E13" departLane="best" type="bike_bicycle" departSpeed="max"/>
    <trip id="bike173" depart="1163.67" from="E0" to="E10" departLane="best" type="bike_bicycle"/>
    <trip id="bike174" depart="1170.39" from="E11" to="E22" departLane="best" type="bike_bicycle" departSpeed="max"/>
    <trip id="bike175" depart="1177.12" from="E21" to="E13" departLane="best" type="bike_bicycle" departSpeed="max"/>
    <trip id="bike176" depart="1183.85" from="E23" to="E4" departLane="best" type="bike_bicycle" departSpeed="max"/>
    <trip id="bike177" depart="1190.57" from="E12" to="E20" departLane="best" type="bike_bicycle" departSpeed="max"/>
    <trip id="bike178" depart="1197.30" from="E3" to="E10" departLane="best" type="bike_bicycle"/>
    <trip id="bike179" depart="1204.03" from="E5" to="E8" departLane="best" type="bike_bicycle"/>
    <trip id="bike180" depart="1210.75" from="E16" to="E22" departLane="best" type="bike_bicycle" departSpeed="max"/>
    <trip id="bike181" depart="1217.48" from="E9" to="E15" departLane="best" type="bike_bicycle" departSpeed="max"/>
    <trip id="bike182" depart="1224.21" from="E3" to="E1" departLane="best" type="bike_bicycle"/>
    <trip id="bike183" depart="1230.93" from="E23" to="E22" departLane="best" type="bike_bicycle" departSpeed="max"/>
    <trip id="bike184" depart="1237.66" from="E11" to="E8" departLane="best" type="bike_bicycle" departSpeed="max"/>
    <trip id="bike185" depart="1244.38" from="E19" to="E15" departLane="best" type="bike_bicycle" departSpeed="max"/>
    <trip id="bike186" depart="1251.11" from="E11" to="E8" departLane="best" type="bike_bicycle" departSpeed="max"/>
    <trip id="bike187" depart="1257.84" from="E23" to="E17" departLane="best" type="bike_bicycle" departSpeed="max"/>
    <trip id="bike188" depart="1264.56" from="E3" to="E8" departLane="best" type="bike_bicycle"/>
    <trip id="bike189" depart="1271.29" from="E16" to="E5" departLane="best" type="bike_bicycle" departSpeed="max"/>
    <trip id="bike190" depart="1278.02" from="E16" to="E6" departLane="best" type="bike_bicycle" departSpeed="max"/>
    <trip id="bike191" depart="1284.74" from="E19" to="E20" departLane="best" type="bike_bicycle" departSpeed="max"/>
    <trip id="bike192" depart="1291.47" from="E18" to="E0" departLane="best" type="bike_bicycle" departSpeed="max"/>
    <trip id="bike193" depart="1298.20" from="E6" to="E13" departLane="best" type="bike_bicycle"/>
    <trip id="bike194" depart="1304.92" from="E23" to="E14" departLane="best" type="bike_bicycle" departSpeed="max"/>
    <trip id="bike195" depart="1311.65" from="E19" to="E4" departLane="best" type="bike_bicycle" departSpeed="max"/>
    <trip id="bike196" depart="1318.38" from="E23" to="E22" departLane="best" type="bike_bicycle" departSpeed="max"/>
    <trip id="bike197" depart="1325.10" from="E11" to="E13" departLane="best" type="bike_bicycle" departSpeed="max"/>
    <trip id="bike198" depart="1331.83" from="E23" to="E14" departLane="best" type="bike_bicycle" departSpeed="max"/>
    <trip id="bike199" depart="1338.55" from="E21" to="E17" departLane="best" type="bike_bicycle" departSpeed="max"/>
    <trip id="bike200" depart="1345.28" from="E3" to="E14" departLane="best" type="bike_bicycle"/>
    <trip id="bike201" depart="1352.01" from="E23" to="E14" departLane="best" type="bike_bicycle" departSpeed="max"/>
    <trip id="bike202" depart="1358.73" from="E16" to="E10" departLane="best" type="bike_bicycle" departSpeed="max"/>
    <trip id="bike203" depart="1365.46" from="E12" to="E10" departLane="best" type="bike_bicycle" departSpeed="max"/>
    <trip id="bike204" depart="1372.19" from="E9" to="E2" departLane="best" type="bike_bicycle" departSpeed="max"/>
    <trip id="bike205" depart="1378.91" from="E16" to="E10" departLane="best" type="bike_bicycle" departSpeed="max"/>
    <trip id="bike206" depart="1385.64" from="E9" to="E20" departLane="best" type="bike_bicycle" departSpeed="max"/>
    <trip id="bike207" depart="1392.37" from="E23" to="E10" departLane="best" type="bike_bicycle" departSpeed="max"/>
    <trip id="bike208" depart="1399.09" from="E19" to="E17" departLane="best" type="bike_bicycle" departSpeed="max"/>
    <trip id="bike209" depart="1405.82" from="E12" to="E1" departLane="best" type="bike_bicycle" departSpeed="max"/>
    <trip id="bike210" depart="1412.54" from="E9" to="E17" departLane="best" type="bike_bicycle" departSpeed="max"/>
    <trip id="bike211" depart="1419.27" from="E5" to="E15" departLane="best" type="bike_bicycle"/>
    <trip id="bike212" depart="1426.00" from="E21" to="E14" departLane="best" type="bike_bicycle" departSpeed="max"/>
    <trip id="bike213" depart="1432.72" from="E9" to="E10" departLane="best" type="bike_bicycle" departSpeed="max"/>
    <trip id="bike214" depart="1439.45" from="E9" to="E14" departLane="best" type="bike_bicycle" departSpeed="max"/>
    <trip id="bike215" depart="1446.18" from="E3" to="E8" departLane="best" type="bike_bicycle"/>
    <trip id="bike216" depart="1452.90" from="E23" to="E10" departLane="best" type="bike_bicycle" departSpeed="max"/>
    <trip id="bike217" depart="1459.63" from="E12" to="E1" departLane="best" type="bike_bicycle" departSpeed="max"/>
    <trip id="bike218" depart="1466.36" from="E0" to="E17" departLane="best" type="bike_bicycle"/>
    <trip id="bike219" depart="1473.08" from="E21" to="E14" departLane="best" type="bike_bicycle" departSpeed="max"/>
    <trip id="bike220" depart="1479.81" from="E12" to="E22" departLane="best" type="bike_bicycle" departSpeed="max"/>
    <trip id="bike221" depart="1486.54" from="E23" to="E17" departLane="best" type="bike_bicycle" departSpeed="max"/>
    <trip id="bike222" depart="1493.26" from="E23" to="E8" departLane="best" type="bike_bicycle" departSpeed="max"/>
    <trip id="bike223" depart="1499.99" from="E23" to="E8" departLane="best" type="bike_bicycle" departSpeed="max"/>
    <trip id="bike224" depart="1506.71" from="E19" to="E20" departLane="best" type="bike_bicycle" departSpeed="max"/>
    <trip id="bike225" depart="1513.44" from="E5" to="E1" departLane="best" type="bike_bicycle"/>
    <trip id="bike226" depart="1520.17" from="E11" to="E14" departLane="best" type="bike_bicycle" departSpeed="max"/>
    <trip id="bike227" depart="1526.89" from="E16" to="E10" departLane="best" type="bike_bicycle" departSpeed="max"/>
    <trip id="bike228" depart="1533.62" from="E23" to="E22" departLane="best" type="bike_bicycle" departSpeed="max"/>
    <trip id="bike229" depart="1540.35" from="E9" to="E2" departLane="best" type="bike_bicycle" departSpeed="max"/>
    <trip id="bike230" depart="1547.07" from="E19" to="E1" departLane="best" type="bike_bicycle" departSpeed="max"/>
    <trip id="bike231" depart="1553.80" from="E0" to="E17" departLane="best" type="bike_bicycle"/>
    <trip id="bike232" depart="1560.53" from="E16" to="E14" departLane="best" type="bike_bicycle" departSpeed="max"/>
    <trip id="bike233" depart="1567.25" from="E11" to="E8" departLane="best" type="bike_bicycle" departSpeed="max"/>
    <trip id="bike234" depart="1573.98" from="E23" to="E14" departLane="best" type="bike_bicycle" departSpeed="max"/>
    <trip id="bike235" depart="1580.71" from="E0" to="E4" departLane="best" type="bike_bicycle"/>
    <trip id="bike236" depart="1587.43" from="E19" to="E22" departLane="best" type="bike_bicycle" departSpeed="max"/>
    <trip id="bike237" depart="1594.16" from="E21" to="E22" departLane="best" type="bike_bicycle" departSpeed="max"/>
    <trip id="bike238" depart="1600.88" from="E19" to="E10" departLane="best" type="bike_bicycle" departSpeed="max"/>
    <trip id="bike239" depart="1607.61" from="E18" to="E14" departLane="best" type="bike_bicycle" departSpeed="max"/>
    <trip id="bike240" depart="1614.34" from="E23" to="E6" departLane="best" type="bike_bicycle" departSpeed="max"/>
    <trip id="bike241" depart="1621.06" from="E16" to="E22" departLane="best" type="bike_bicycle" departSpeed="max"/>
    <trip id="bike242" depart="1627.79" from="E16" to="E8" departLane="best" type="bike_bicycle" departSpeed="max"/>
    <trip id="bike243" depart="1634.52" from="E5" to="E20" departLane="best" type="bike_bicycle"/>
    <trip id="bike244" depart="1641.24" from="E19" to="E14" departLane="best" type="bike_bicycle" departSpeed="max"/>
    <trip id="bike245" depart="1647.97" from="E16" to="E8" departLane="best" type="bike_bicycle" departSpeed="max"/>
    <trip id="bike246" depart="1654.70" from="E18" to="E2" departLane="best" type="bike_bicycle" departSpeed="max"/>
    <trip id="bike247" depart="1661.42" from="E9" to="E22" departLane="best" type="bike_bicycle" departSpeed="max"/>
    <trip id="bike248" depart="1668.15" from="E21" to="E15" departLane="best" type="bike_bicycle" departSpeed="max"/>
    <trip id="bike249" depart="1674.87" from="E12" to="E15" departLane="best" type="bike_bicycle" departSpeed="max"/>
    <trip id="bike250" depart="1681.60" from="E21" to="E8" departLane="best" type="bike_bicycle" departSpeed="max"/>
    <trip id="bike251" depart="1688.33" from="E19" to="E22" departLane="best" type="bike_bicycle" departSpeed="max"/>
    <trip id="bike252" depart="1695.05" from="E11" to="E8" departLane="best" type="bike_bicycle" departSpeed="max"/>
    <trip id="bike253" depart="1701.78" from="E21" to="E13" departLane="best" type="bike_bicycle" departSpeed="max"/>
    <trip id="bike254" depart="1708.51" from="E11" to="E20" departLane="best" type="bike_bicycle" departSpeed="max"/>
    <trip id="bike255" depart="1715.23" from="E21" to="E10" departLane="best" type="bike_bicycle" departSpeed="max"/>