<?xml version="1.0" encoding="UTF-8"?>

<!-- generated on 2025-07-03 17:54:25.276261 by randomTrips.py v1_23_1+0000-676720d13f6
<configuration>
    <net-file value="osm.net.xml.gz"/>
    <output-trip-file value="osm.passenger.trips.xml"/>
    <route-file value="osm.passenger.rou.xml"/>
    <prefix value="veh"/>
    <trip-attributes value="departLane=&quot;best&quot;"/>
    <fringe-start-attributes value="departSpeed=&quot;max&quot;"/>
    <vehicle-class value="passenger"/>
    <lanes value="True"/>
    <fringe-factor value="5"/>
    <allow-fringe.min-length value="10000.0"/>
    <edge-permission value="passenger"/>
    <via-edge-types value="highway.motorway,highway.motorway_link,highway.trunk_link,highway.primary_link,highway.secondary_link,highway.tertiary_link"/>
    <min-distance value="300.0"/>
    <min-distance.fringe value="100.0"/>
    <remove-loops value="True"/>
    <validate value="True"/>
    <insertion-density value="120.0"/>
</configuration>
-->

<!-- generated on 2025-07-03 17:54:25 by Eclipse SUMO duarouter Version 1.23.1
<duarouterConfiguration xmlns:xsi="http://www.w3.org/2001/XMLSchema-instance" xsi:noNamespaceSchemaLocation="http://sumo.dlr.de/xsd/duarouterConfiguration.xsd">

    <input>
        <net-file value="osm.net.xml.gz"/>
        <route-files value="osm.passenger.trips.xml"/>
    </input>

    <output>
        <output-file value="osm.passenger.trips.xml.tmp"/>
        <alternatives-output value="NUL"/>
        <write-trips value="true"/>
    </output>

    <processing>
        <remove-loops value="true"/>
    </processing>

    <time>
        <begin value="0.0"/>
        <end value="3600.0"/>
    </time>

    <report>
        <no-warnings value="true"/>
        <ignore-errors value="true"/>
        <no-step-log value="true"/>
    </report>

</duarouterConfiguration>
-->

<routes xmlns:xsi="http://www.w3.org/2001/XMLSchema-instance" xsi:noNamespaceSchemaLocation="http://sumo.dlr.de/xsd/routes_file.xsd">
    <vType id="veh_passenger" vClass="passenger"/>
    <trip id="veh0" type="veh_passenger" depart="0.00" departLane="best" from="E7" to="E10"/>
    <trip id="veh1" type="veh_passenger" depart="3.07" departLane="best" departSpeed="max" from="E12" to="E17"/>
    <trip id="veh2" type="veh_passenger" depart="6.14" departLane="best" from="E0" to="E13"/>
    <trip id="veh3" type="veh_passenger" depart="9.22" departLane="best" departSpeed="max" from="E12" to="E20"/>
    <trip id="veh4" type="veh_passenger" depart="12.29" departLane="best" departSpeed="max" from="E9" to="E14"/>
    <trip id="veh5" type="veh_passenger" depart="15.36" departLane="best" departSpeed="max" from="E11" to="E13"/>
    <trip id="veh6" type="veh_passenger" depart="18.43" departLane="best" departSpeed="max" from="E21" to="E15"/>
    <trip id="veh7" type="veh_passenger" depart="21.51" departLane="best" departSpeed="max" from="E18" to="E13"/>
    <trip id="veh8" type="veh_passenger" depart="24.58" departLane="best" departSpeed="max" from="E16" to="E8"/>
    <trip id="veh9" type="veh_passenger" depart="27.65" departLane="best" departSpeed="max" from="E12" to="E22"/>
    <trip id="veh10" type="veh_passenger" depart="30.72" departLane="best" departSpeed="max" from="E9" to="E20"/>
    <trip id="veh11" type="veh_passenger" depart="33.80" departLane="best" departSpeed="max" from="E12" to="E1"/>
    <trip id="veh12" type="veh_passenger" depart="36.87" departLane="best" departSpeed="max" from="E12" to="E8"/>
    <trip id="veh13" type="veh_passenger" depart="39.94" departLane="best" departSpeed="max" from="E21" to="E15"/>
    <trip id="veh14" type="veh_passenger" depart="43.01" departLane="best" departSpeed="max" from="E9" to="E17"/>
    <trip id="veh15" type="veh_passenger" depart="46.08" departLane="best" departSpeed="max" from="E18" to="E13"/>
    <trip id="veh16" type="veh_passenger" depart="49.16" departLane="best" departSpeed="max" from="E9" to="E17"/>
    <trip id="veh17" type="veh_passenger" depart="52.23" departLane="best" departSpeed="max" from="E11" to="E1"/>
    <trip id="veh18" type="veh_passenger" depart="55.30" departLane="best" departSpeed="max" from="E11" to="E20"/>
    <trip id="veh19" type="veh_passenger" depart="58.37" departLane="best" departSpeed="max" from="E11" to="E15"/>
    <trip id="veh20" type="veh_passenger" depart="61.45" departLane="best" departSpeed="max" from="E9" to="E17"/>
    <trip id="veh21" type="veh_passenger" depart="64.52" departLane="best" departSpeed="max" from="E16" to="E20"/>
    <trip id="veh22" type="veh_passenger" depart="67.59" departLane="best" departSpeed="max" from="E11" to="E15"/>
    <trip id="veh23" type="veh_passenger" depart="70.66" departLane="best" departSpeed="max" from="E16" to="E20"/>
    <trip id="veh24" type="veh_passenger" depart="73.74" departLane="best" departSpeed="max" from="E21" to="E10"/>
    <trip id="veh25" type="veh_passenger" depart="76.81" departLane="best" from="E0" to="E14"/>
    <trip id="veh26" type="veh_passenger" depart="79.88" departLane="best" departSpeed="max" from="E16" to="E1"/>
    <trip id="veh27" type="veh_passenger" depart="82.95" departLane="best" from="E3" to="E10"/>
    <trip id="veh28" type="veh_passenger" depart="86.02" departLane="best" departSpeed="max" from="E19" to="E2"/>
    <trip id="veh29" type="veh_passenger" depart="89.10" departLane="best" departSpeed="max" from="E18" to="E13"/>
    <trip id="veh30" type="veh_passenger" depart="92.17" departLane="best" departSpeed="max" from="E9" to="E20"/>
    <trip id="veh31" type="veh_passenger" depart="95.24" departLane="best" departSpeed="max" from="E19" to="E17"/>
    <trip id="veh32" type="veh_passenger" depart="98.31" departLane="best" departSpeed="max" from="E11" to="E13"/>
    <trip id="veh33" type="veh_passenger" depart="101.39" departLane="best" departSpeed="max" from="E16" to="E20"/>
    <trip id="veh34" type="veh_passenger" depart="104.46" departLane="best" departSpeed="max" from="E11" to="E20"/>
    <trip id="veh35" type="veh_passenger" depart="107.53" departLane="best" departSpeed="max" from="E12" to="E22"/>
    <trip id="veh36" type="veh_passenger" depart="110.60" departLane="best" departSpeed="max" from="E12" to="E10"/>
    <trip id="veh37" type="veh_passenger" depart="113.68" departLane="best" departSpeed="max" from="E9" to="E20"/>
    <trip id="veh38" type="veh_passenger" depart="116.75" departLane="best" departSpeed="max" from="E19" to="E4"/>
    <trip id="veh39" type="veh_passenger" depart="119.82" departLane="best" departSpeed="max" from="E11" to="E15"/>
    <trip id="veh40" type="veh_passenger" depart="122.89" departLane="best" departSpeed="max" from="E9" to="E10"/>
    <trip id="veh41" type="veh_passenger" depart="125.96" departLane="best" departSpeed="max" from="E18" to="E14"/>
    <trip id="veh42" type="veh_passenger" depart="129.04" departLane="best" departSpeed="max" from="E12" to="E17"/>
    <trip id="veh43" type="veh_passenger" depart="132.11" departLane="best" departSpeed="max" from="E18" to="E14"/>
    <trip id="veh44" type="veh_passenger" depart="135.18" departLane="best" departSpeed="max" from="E12" to="E8"/>
    <trip id="veh45" type="veh_passenger" depart="138.25" departLane="best" departSpeed="max" from="E9" to="E20"/>
    <trip id="veh46" type="veh_passenger" depart="141.33" departLane="best" departSpeed="max" from="E12" to="E8"/>
    <trip id="veh47" type="veh_passenger" depart="144.40" departLane="best" departSpeed="max" from="E11" to="E13"/>
    <trip id="veh48" type="veh_passenger" depart="147.47" departLane="best" departSpeed="max" from="E12" to="E10"/>
    <trip id="veh49" type="veh_passenger" depart="150.54" departLane="best" departSpeed="max" from="E12" to="E22"/>
    <trip id="veh50" type="veh_passenger" depart="153.62" departLane="best" departSpeed="max" from="E11" to="E13"/>
    <trip id="veh51" type="veh_passenger" depart="156.69" departLane="best" departSpeed="max" from="E16" to="E8"/>
    <trip id="veh52" type="veh_passenger" depart="159.76" departLane="best" departSpeed="max" from="E18" to="E13"/>
    <trip id="veh53" type="veh_passenger" depart="162.83" departLane="best" from="E5" to="E22"/>
    <trip id="veh54" type="veh_passenger" depart="165.90" departLane="best" departSpeed="max" from="E21" to="E8"/>
    <trip id="veh55" type="veh_passenger" depart="168.98" departLane="best" departSpeed="max" from="E23" to="E8"/>
    <trip id="veh56" type="veh_passenger" depart="172.05" departLane="best" departSpeed="max" from="E11" to="E2"/>
    <trip id="veh57" type="veh_passenger" depart="175.12" departLane="best" departSpeed="max" from="E16" to="E20"/>
    <trip id="veh58" type="veh_passenger" depart="178.19" departLane="best" departSpeed="max" from="E23" to="E13"/>
    <trip id="veh59" type="veh_passenger" depart="181.27" departLane="best" departSpeed="max" from="E21" to="E14"/>
    <trip id="veh60" type="veh_passenger" depart="184.34" departLane="best" departSpeed="max" from="E18" to="E14"/>
    <trip id="veh61" type="veh_passenger" depart="187.41" departLane="best" departSpeed="max" from="E21" to="E14"/>
    <trip id="veh62" type="veh_passenger" depart="190.48" departLane="best" departSpeed="max" from="E12" to="E10"/>
    <trip id="veh63" type="veh_passenger" depart="193.56" departLane="best" departSpeed="max" from="E11" to="E8"/>
    <trip id="veh64" type="veh_passenger" depart="196.63" departLane="best" departSpeed="max" from="E16" to="E8"/>
    <trip id="veh65" type="veh_passenger" depart="199.70" departLane="best" from="E0" to="E13"/>
    <trip id="veh66" type="veh_passenger" depart="202.77" departLane="best" departSpeed="max" from="E9" to="E14"/>
    <trip id="veh67" type="veh_passenger" depart="205.84" departLane="best" departSpeed="max" from="E21" to="E15"/>
    <trip id="veh68" type="veh_passenger" depart="208.92" departLane="best" departSpeed="max" from="E9" to="E10"/>
    <trip id="veh69" type="veh_passenger" depart="211.99" departLane="best" departSpeed="max" from="E9" to="E13"/>
    <trip id="veh70" type="veh_passenger" depart="215.06" departLane="best" departSpeed="max" from="E9" to="E14"/>
    <trip id="veh71" type="veh_passenger" depart="218.13" departLane="best" departSpeed="max" from="E11" to="E15"/>
    <trip id="veh72" type="veh_passenger" depart="221.21" departLane="best" departSpeed="max" from="E16" to="E22"/>
    <trip id="veh73" type="veh_passenger" depart="224.28" departLane="best" departSpeed="max" from="E18" to="E10"/>
    <trip id="veh74" type="veh_passenger" depart="227.35" departLane="best" departSpeed="max" from="E18" to="E14"/>
    <trip id="veh75" type="veh_passenger" depart="230.42" departLane="best" departSpeed="max" from="E11" to="E15"/>
    <trip id="veh76" type="veh_passenger" depart="233.50" departLane="best" from="E7" to="E20"/>
    <trip id="veh77" type="veh_passenger" depart="236.57" departLane="best" from="E0" to="E14"/>
    <trip id="veh78" type="veh_passenger" depart="239.64" departLane="best" departSpeed="max" from="E21" to="E14"/>
    <trip id="veh79" type="veh_passenger" depart="242.71" departLane="best" departSpeed="max" from="E23" to="E13"/>
    <trip id="veh80" type="veh_passenger" depart="245.78" departLane="best" departSpeed="max" from="E12" to="E17"/>
    <trip id="veh81" type="veh_passenger" depart="248.86" departLane="best" departSpeed="max" from="E12" to="E22"/>
    <trip id="veh82" type="veh_passenger" depart="251.93" departLane="best" departSpeed="max" from="E11" to="E15"/>
    <trip id="veh83" type="veh_passenger" depart="255.00" departLane="best" departSpeed="max" from="E12" to="E8"/>
    <trip id="veh84" type="veh_passenger" depart="258.07" departLane="best" departSpeed="max" from="E19" to="E4"/>
    <trip id="veh85" type="veh_passenger" depart="261.15" departLane="best" departSpeed="max" from="E23" to="E8"/>
    <trip id="veh86" type="veh_passenger" depart="264.22" departLane="best" departSpeed="max" from="E21" to="E8"/>
    <trip id="veh87" type="veh_passenger" depart="267.29" departLane="best" from="E7" to="E20"/>
    <trip id="veh88" type="veh_passenger" depart="270.36" departLane="best" from="E7" to="E22"/>
    <trip id="veh89" type="veh_passenger" depart="273.44" departLane="best" departSpeed="max" from="E12" to="E20"/>
    <trip id="veh90" type="veh_passenger" depart="276.51" departLane="best" departSpeed="max" from="E21" to="E14"/>
    <trip id="veh91" type="veh_passenger" depart="279.58" departLane="best" departSpeed="max" from="E12" to="E22"/>
    <trip id="veh92" type="veh_passenger" depart="282.65" departLane="best" departSpeed="max" from="E18" to="E13"/>
    <trip id="veh93" type="veh_passenger" depart="285.72" departLane="best" departSpeed="max" from="E16" to="E22"/>
    <trip id="veh94" type="veh_passenger" depart="288.80" departLane="best" departSpeed="max" from="E18" to="E13"/>
    <trip id="veh95" type="veh_passenger" depart="291.87" departLane="best" departSpeed="max" from="E19" to="E10"/>
    <trip id="veh96" type="veh_passenger" depart="294.94" departLane="best" departSpeed="max" from="E9" to="E13"/>
    <trip id="veh97" type="veh_passenger" depart="298.01" departLane="best" from="E0" to="E10"/>
    <trip id="veh98" type="veh_passenger" depart="301.09" departLane="best" departSpeed="max" from="E11" to="E22"/>
    <trip id="veh99" type="veh_passenger" depart="304.16" departLane="best" departSpeed="max" from="E21" to="E13"/>
    <trip id="veh100" type="veh_passenger" depart="307.23" departLane="best" departSpeed="max" from="E12" to="E20"/>
    <trip id="veh101" type="veh_passenger" depart="310.30" departLane="best" from="E5" to="E8"/>
    <trip id="veh102" type="veh_passenger" depart="313.38" departLane="best" departSpeed="max" from="E16" to="E22"/>
    <trip id="veh103" type="veh_passenger" depart="316.45" departLane="best" departSpeed="max" from="E11" to="E8"/>
    <trip id="veh104" type="veh_passenger" depart="319.52" departLane="best" departSpeed="max" from="E11" to="E8"/>
    <trip id="veh105" type="veh_passenger" depart="322.59" departLane="best" departSpeed="max" from="E23" to="E15"/>
    <trip id="veh106" type="veh_passenger" depart="325.66" departLane="best" departSpeed="max" from="E23" to="E8"/>
    <trip id="veh107" type="veh_passenger" depart="328.74" departLane="best" departSpeed="max" from="E19" to="E20"/>
    <trip id="veh108" type="veh_passenger" depart="331.81" departLane="best" departSpeed="max" from="E12" to="E4"/>
    <trip id="veh109" type="veh_passenger" depart="334.88" departLane="best" departSpeed="max" from="E11" to="E22"/>
    <trip id="veh110" type="veh_passenger" depart="337.95" departLane="best" departSpeed="max" from="E19" to="E4"/>
    <trip id="veh111" type="veh_passenger" depart="341.03" departLane="best" departSpeed="max" from="E11" to="E13"/>
    <trip id="veh112" type="veh_passenger" depart="344.10" departLane="best" departSpeed="max" from="E12" to="E10"/>
    <trip id="veh113" type="veh_passenger" depart="347.17" departLane="best" departSpeed="max" from="E9" to="E17"/>
    <trip id="veh114" type="veh_passenger" depart="350.24" departLane="best" departSpeed="max" from="E19" to="E17"/>
    <trip id="veh115" type="veh_passenger" depart="353.32" departLane="best" departSpeed="max" from="E12" to="E1"/>
    <trip id="veh116" type="veh_passenger" depart="356.39" departLane="best" departSpeed="max" from="E9" to="E17"/>
    <trip id="veh117" type="veh_passenger" depart="359.46" departLane="best" from="E5" to="E15"/>
    <trip id="veh118" type="veh_passenger" depart="362.53" departLane="best" departSpeed="max" from="E11" to="E20"/>
    <trip id="veh119" type="veh_passenger" depart="365.60" departLane="best" departSpeed="max" from="E21" to="E14"/>
    <trip id="veh120" type="veh_passenger" depart="368.68" departLane="best" departSpeed="max" from="E9" to="E10"/>
    <trip id="veh121" type="veh_passenger" depart="371.75" departLane="best" departSpeed="max" from="E19" to="E17"/>
    <trip id="veh122" type="veh_passenger" depart="374.82" departLane="best" departSpeed="max" from="E9" to="E14"/>
    <trip id="veh123" type="veh_passenger" depart="377.89" departLane="best" departSpeed="max" from="E23" to="E8"/>
    <trip id="veh124" type="veh_passenger" depart="380.97" departLane="best" departSpeed="max" from="E23" to="E13"/>
    <trip id="veh125" type="veh_passenger" depart="384.04" departLane="best" departSpeed="max" from="E12" to="E10"/>
    <trip id="veh126" type="veh_passenger" depart="387.11" departLane="best" from="E0" to="E17"/>
    <trip id="veh127" type="veh_passenger" depart="390.18" departLane="best" departSpeed="max" from="E21" to="E14"/>
    <trip id="veh128" type="veh_passenger" depart="393.26" departLane="best" departSpeed="max" from="E12" to="E22"/>
    <trip id="veh129" type="veh_passenger" depart="396.33" departLane="best" departSpeed="max" from="E23" to="E8"/>
    <trip id="veh130" type="veh_passenger" depart="399.40" departLane="best" departSpeed="max" from="E23" to="E8"/>
    <trip id="veh131" type="veh_passenger" depart="402.47" departLane="best" departSpeed="max" from="E21" to="E8"/>
    <trip id="veh132" type="veh_passenger" depart="405.54" departLane="best" departSpeed="max" from="E9" to="E17"/>
    <trip id="veh133" type="veh_passenger" depart="408.62" departLane="best" departSpeed="max" from="E19" to="E10"/>
    <trip id="veh134" type="veh_passenger" depart="411.69" departLane="best" departSpeed="max" from="E11" to="E8"/>
    <trip id="veh135" type="veh_passenger" depart="414.76" departLane="best" departSpeed="max" from="E19" to="E20"/>
    <trip id="veh136" type="veh_passenger" depart="417.83" departLane="best" departSpeed="max" from="E9" to="E13"/>
    <trip id="veh137" type="veh_passenger" depart="420.91" departLane="best" departSpeed="max" from="E19" to="E10"/>
    <trip id="veh138" type="veh_passenger" depart="423.98" departLane="best" departSpeed="max" from="E18" to="E14"/>
    <trip id="veh139" type="veh_passenger" depart="427.05" departLane="best" departSpeed="max" from="E23" to="E6"/>
    <trip id="veh140" type="veh_passenger" depart="430.12" departLane="best" departSpeed="max" from="E16" to="E22"/>
    <trip id="veh141" type="veh_passenger" depart="433.20" departLane="best" departSpeed="max" from="E16" to="E8"/>
    <trip id="veh142" type="veh_passenger" depart="436.27" departLane="best" departSpeed="max" from="E16" to="E8"/>
    <trip id="veh143" type="veh_passenger" depart="439.34" departLane="best" from="E3" to="E13"/>
    <trip id="veh144" type="veh_passenger" depart="442.41" departLane="best" departSpeed="max" from="E11" to="E8"/>
    <trip id="veh145" type="veh_passenger" depart="445.48" departLane="best" departSpeed="max" from="E21" to="E13"/>
    <trip id="veh146" type="veh_passenger" depart="448.56" departLane="best" departSpeed="max" from="E12" to="E2"/>
    <trip id="veh147" type="veh_passenger" depart="451.63" departLane="best" departSpeed="max" from="E19" to="E10"/>
    <trip id="veh148" type="veh_passenger" depart="454.70" departLane="best" departSpeed="max" from="E9" to="E13"/>
    <trip id="veh149" type="veh_passenger" depart="457.77" departLane="best" departSpeed="max" from="E9" to="E17"/>
    <trip id="veh150" type="veh_passenger" depart="460.85" departLane="best" departSpeed="max" from="E21" to="E8"/>
    <trip id="veh151" type="veh_passenger" depart="463.92" departLane="best" departSpeed="max" from="E19" to="E10"/>
    <trip id="veh152" type="veh_passenger" depart="466.99" departLane="best" departSpeed="max" from="E12" to="E22"/>
    <trip id="veh153" type="veh_passenger" depart="470.06" departLane="best" departSpeed="max" from="E21" to="E13"/>
    <trip id="veh154" type="veh_passenger" depart="473.14" departLane="best" departSpeed="max" from="E9" to="E17"/>
    <trip id="veh155" type="veh_passenger" depart="476.21" departLane="best" departSpeed="max" from="E21" to="E6"/>
    <trip id="veh156" type="veh_passenger" depart="479.28" departLane="best" departSpeed="max" from="E19" to="E17"/>
    <trip id="veh157" type="veh_passenger" depart="482.35" departLane="best" departSpeed="max" from="E23" to="E15"/>
    <trip id="veh158" type="veh_passenger" depart="485.42" departLane="best" departSpeed="max" from="E21" to="E10"/>
    <trip id="veh159" type="veh_passenger" depart="488.50" departLane="best" departSpeed="max" from="E16" to="E22"/>
    <trip id="veh160" type="veh_passenger" depart="491.57" departLane="best" departSpeed="max" from="E21" to="E6"/>
    <trip id="veh161" type="veh_passenger" depart="494.64" departLane="best" departSpeed="max" from="E18" to="E14"/>
    <trip id="veh162" type="veh_passenger" depart="497.71" departLane="best" departSpeed="max" from="E11" to="E20"/>
    <trip id="veh163" type="veh_passenger" depart="500.79" departLane="best" departSpeed="max" from="E23" to="E15"/>
    <trip id="veh164" type="veh_passenger" depart="503.86" departLane="best" departSpeed="max" from="E11" to="E20"/>
    <trip id="veh165" type="veh_passenger" depart="506.93" departLane="best" departSpeed="max" from="E12" to="E10"/>
    <trip id="veh166" type="veh_passenger" depart="510.00" departLane="best" departSpeed="max" from="E12" to="E8"/>
    <trip id="veh167" type="veh_passenger" depart="513.08" departLane="best" from="E7" to="E22"/>
    <trip id="veh168" type="veh_passenger" depart="516.15" departLane="best" departSpeed="max" from="E12" to="E17"/>
    <trip id="veh169" type="veh_passenger" depart="519.22" departLane="best" departSpeed="max" from="E21" to="E15"/>
    <trip id="veh170" type="veh_passenger" depart="522.29" departLane="best" departSpeed="max" from="E9" to="E14"/>
    <trip id="veh171" type="veh_passenger" depart="525.36" departLane="best" departSpeed="max" from="E16" to="E20"/>
    <trip id="veh172" type="veh_passenger" depart="528.44" departLane="best" departSpeed="max" from="E21" to="E15"/>
    <trip id="veh173" type="veh_passenger" depart="531.51" departLane="best" departSpeed="max" from="E21" to="E14"/>
    <trip id="veh174" type="veh_passenger" depart="534.58" departLane="best" departSpeed="max" from="E19" to="E20"/>
    <trip id="veh175" type="veh_passenger" depart="537.65" departLane="best" departSpeed="max" from="E16" to="E22"/>
    <trip id="veh176" type="veh_passenger" depart="540.73" departLane="best" departSpeed="max" from="E12" to="E10"/>
    <trip id="veh177" type="veh_passenger" depart="543.80" departLane="best" departSpeed="max" from="E9" to="E10"/>
    <trip id="veh178" type="veh_passenger" depart="546.87" departLane="best" departSpeed="max" from="E23" to="E8"/>
    <trip id="veh179" type="veh_passenger" depart="549.94" departLane="best" departSpeed="max" from="E9" to="E4"/>
    <trip id="veh180" type="veh_passenger" depart="553.02" departLane="best" departSpeed="max" from="E18" to="E4"/>
    <trip id="veh181" type="veh_passenger" depart="556.09" departLane="best" from="E5" to="E8"/>
    <trip id="veh182" type="veh_passenger" depart="559.16" departLane="best" departSpeed="max" from="E11" to="E13"/>
    <trip id="veh183" type="veh_passenger" depart="562.23" departLane="best" departSpeed="max" from="E12" to="E10"/>
    <trip id="veh184" type="veh_passenger" depart="565.30" departLane="best" from="E5" to="E8"/>
    <trip id="veh185" type="veh_passenger" depart="568.38" departLane="best" departSpeed="max" from="E11" to="E8"/>
    <trip id="veh186" type="veh_passenger" depart="571.45" departLane="best" departSpeed="max" from="E18" to="E10"/>
    <trip id="veh187" type="veh_passenger" depart="574.52" departLane="best" departSpeed="max" from="E11" to="E22"/>
    <trip id="veh188" type="veh_passenger" depart="577.59" departLane="best" departSpeed="max" from="E12" to="E10"/>
    <trip id="veh189" type="veh_passenger" depart="580.67" departLane="best" departSpeed="max" from="E11" to="E20"/>
    <trip id="veh190" type="veh_passenger" depart="583.74" departLane="best" departSpeed="max" from="E12" to="E1"/>
    <trip id="veh191" type="veh_passenger" depart="586.81" departLane="best" departSpeed="max" from="E19" to="E17"/>
    <trip id="veh192" type="veh_passenger" depart="589.88" departLane="best" departSpeed="max" from="E9" to="E10"/>
    <trip id="veh193" type="veh_passenger" depart="592.96" departLane="best" departSpeed="max" from="E11" to="E20"/>
    <trip id="veh194" type="veh_passenger" depart="596.03" departLane="best" departSpeed="max" from="E16" to="E8"/>
    <trip id="veh195" type="veh_passenger" depart="599.10" departLane="best" departSpeed="max" from="E19" to="E17"/>
    <trip id="veh196" type="veh_passenger" depart="602.17" departLane="best" departSpeed="max" from="E21" to="E10"/>
    <trip id="veh197" type="veh_passenger" depart="605.24" departLane="best" departSpeed="max" from="E23" to="E6"/>
    <trip id="veh198" type="veh_passenger" depart="608.32" departLane="best" departSpeed="max" from="E23" to="E13"/>
    <trip id="veh199" type="veh_passenger" depart="611.39" departLane="best" departSpeed="max" from="E18" to="E10"/>
    <trip id="veh200" type="veh_passenger" depart="614.46" departLane="best" departSpeed="max" from="E18" to="E10"/>
    <trip id="veh201" type="veh_passenger" depart="617.53" departLane="best" departSpeed="max" from="E9" to="E10"/>
    <trip id="veh202" type="veh_passenger" depart="620.61" departLane="best" departSpeed="max" from="E11" to="E22"/>
    <trip id="veh203" type="veh_passenger" depart="623.68" departLane="best" departSpeed="max" from="E23" to="E8"/>
    <trip id="veh204" type="veh_passenger" depart="626.75" departLane="best" departSpeed="max" from="E21" to="E15"/>
    <trip id="veh205" type="veh_passenger" depart="629.82" departLane="best" departSpeed="max" from="E21" to="E13"/>
    <trip id="veh206" type="veh_passenger" depart="632.90" departLane="best" departSpeed="max" from="E23" to="E13"/>
    <trip id="veh207" type="veh_passenger" depart="635.97" departLane="best" departSpeed="max" from="E11" to="E6"/>
    <trip id="veh208" type="veh_passenger" depart="639.04" departLane="best" departSpeed="max" from="E18" to="E10"/>
    <trip id="veh209" type="veh_passenger" depart="642.11" departLane="best" departSpeed="max" from="E23" to="E13"/>
    <trip id="veh210" type="veh_passenger" depart="645.18" departLane="best" departSpeed="max" from="E18" to="E14"/>
    <trip id="veh211" type="veh_passenger" depart="648.26" departLane="best" departSpeed="max" from="E11" to="E1"/>
    <trip id="veh212" type="veh_passenger" depart="651.33" departLane="best" departSpeed="max" from="E12" to="E20"/>
    <trip id="veh213" type="veh_passenger" depart="654.40" departLane="best" from="E3" to="E10"/>
    <trip id="veh214" type="veh_passenger" depart="657.47" departLane="best" departSpeed="max" from="E18" to="E14"/>
    <trip id="veh215" type="veh_passenger" depart="660.55" departLane="best" from="E0" to="E14"/>
    <trip id="veh216" type="veh_passenger" depart="663.62" departLane="best" departSpeed="max" from="E12" to="E10"/>
    <trip id="veh217" type="veh_passenger" depart="666.69" departLane="best" departSpeed="max" from="E11" to="E6"/>
    <trip id="veh218" type="veh_passenger" depart="669.76" departLane="best" departSpeed="max" from="E23" to="E15"/>
    <trip id="veh219" type="veh_passenger" depart="672.84" departLane="best" departSpeed="max" from="E9" to="E10"/>
    <trip id="veh220" type="veh_passenger" depart="675.91" departLane="best" departSpeed="max" from="E18" to="E14"/>
    <trip id="veh221" type="veh_passenger" depart="678.98" departLane="best" departSpeed="max" from="E12" to="E17"/>
    <trip id="veh222" type="veh_passenger" depart="682.05" departLane="best" from="E5" to="E13"/>
    <trip id="veh223" type="veh_passenger" depart="685.12" departLane="best" departSpeed="max" from="E11" to="E13"/>
    <trip id="veh224" type="veh_passenger" depart="688.20" departLane="best" departSpeed="max" from="E21" to="E13"/>
    <trip id="veh225" type="veh_passenger" depart="691.27" departLane="best" departSpeed="max" from="E21" to="E6"/>
    <trip id="veh226" type="veh_passenger" depart="694.34" departLane="best" departSpeed="max" from="E21" to="E10"/>
    <trip id="veh227" type="veh_passenger" depart="697.41" departLane="best" departSpeed="max" from="E11" to="E6"/>
    <trip id="veh228" type="veh_passenger" depart="700.49" departLane="best" departSpeed="max" from="E19" to="E17"/>
    <trip id="veh229" type="veh_passenger" depart="703.56" departLane="best" departSpeed="max" from="E11" to="E1"/>
    <trip id="veh230" type="veh_passenger" depart="706.63" departLane="best" departSpeed="max" from="E16" to="E22"/>
    <trip id="veh231" type="veh_passenger" depart="709.70" departLane="best" departSpeed="max" from="E12" to="E17"/>
    <trip id="veh232" type="veh_passenger" depart="712.78" departLane="best" departSpeed="max" from="E19" to="E17"/>
    <trip id="veh233" type="veh_passenger" depart="715.85" departLane="best" departSpeed="max" from="E16" to="E20"/>
    <trip id="veh234" type="veh_passenger" depart="718.92" departLane="best" departSpeed="max" from="E16" to="E20"/>
    <trip id="veh235" type="veh_passenger" depart="721.99" departLane="best" departSpeed="max" from="E11" to="E15"/>
    <trip id="veh236" type="veh_passenger" depart="725.06" departLane="best" departSpeed="max" from="E9" to="E14"/>
    <trip id="veh237" type="veh_passenger" depart="728.14" departLane="best" departSpeed="max" from="E18" to="E4"/>
    <trip id="veh238" type="veh_passenger" depart="731.21" departLane="best" from="E5" to="E22"/>
    <trip id="veh239" type="veh_passenger" depart="734.28" departLane="best" from="E5" to="E22"/>
    <trip id="veh240" type="veh_passenger" depart="737.35" departLane="best" departSpeed="max" from="E21" to="E15"/>
    <trip id="veh241" type="veh_passenger" depart="740.43" departLane="best" departSpeed="max" from="E9" to="E17"/>
    <trip id="veh242" type="veh_passenger" depart="743.50" departLane="best" departSpeed="max" from="E12" to="E10"/>
    <trip id="veh243" type="veh_passenger" depart="746.57" departLane="best" departSpeed="max" from="E11" to="E6"/>
    <trip id="veh244" type="veh_passenger" depart="749.64" departLane="best" from="E3" to="E10"/>