<?xml version="1.0" encoding="UTF-8"?>

<!-- generated on 2025-07-12 21:45:22 by Eclipse SUMO netedit Version 1.23.1
-->

<additional xmlns:xsi="http://www.w3.org/2001/XMLSchema-instance" xsi:noNamespaceSchemaLocation="http://sumo.dlr.de/xsd/additional_file.xsd">
    <!-- Detectors -->
    <laneAreaDetector id="e2_0" lane="E5_3" pos="25.08" length="100.00" period="300.00" file="e2_0.xml"/>
    <laneAreaDetector id="e2_1" lane="E5_2" pos="25.00" length="100.00" period="300.00" file="e2_1.xml"/>
    <laneAreaDetector id="e2_10" lane="E7_2" pos="23.00" length="100.00" period="300.00" file="e2_10.xml"/>
    <laneAreaDetector id="e2_11" lane="E7_1" pos="23.00" length="100.00" period="300.00" file="e2_11.xml"/>
    <laneAreaDetector id="e2_2" lane="E5_1" pos="25.00" length="100.00" period="300.00" file="e2_2.xml"/>
    <laneAreaDetector id="e2_3" lane="E3_1" pos="1.00" length="100.00" period="300.00" file="e2_3.xml"/>
    <laneAreaDetector id="e2_4" lane="E3_2" pos="1.00" length="100.00" period="300.00" file="e2_4.xml"/>
    <laneAreaDetector id="e2_5" lane="E3_3" pos="1.00" length="100.00" period="300.00" file="e2_5.xml"/>
    <laneAreaDetector id="e2_6" lane="E0_1" pos="13.00" length="100.00" period="300.00" file="e2_6.xml"/>
    <laneAreaDetector id="e2_7" lane="E0_2" pos="13.00" length="100.00" period="300.00" file="e2_7.xml"/>
    <laneAreaDetector id="e2_8" lane="E0_3" pos="13.00" length="100.00" period="300.00" file="e2_8.xml"/>
    <laneAreaDetector id="e2_9" lane="E7_3" pos="23.00" length="100.00" period="300.00" file="e2_9.xml"/>
</additional>
