<?xml version="1.0" encoding="UTF-8"?>

<!-- generated on 2025-07-01 15:12:13.108339 by randomTrips.py v1_23_1+0000-676720d13f6
<configuration>
    <net-file value="osm.net.xml.gz"/>
    <output-trip-file value="osm.motorcycle.trips.xml"/>
    <route-file value="osm.motorcycle.rou.xml"/>
    <prefix value="motorcycle"/>
    <trip-attributes value="departLane=&quot;best&quot;"/>
    <fringe-start-attributes value="departSpeed=&quot;max&quot;"/>
    <vehicle-class value="motorcycle"/>
    <fringe-factor value="2"/>
    <edge-permission value="motorcycle"/>
    <via-edge-types value="highway.motorway,highway.motorway_link,highway.trunk_link,highway.primary_link,highway.secondary_link,highway.tertiary_link"/>
    <max-distance value="1200.0"/>
    <remove-loops value="True"/>
    <validate value="True"/>
    <insertion-density value="40.0"/>
</configuration>
-->

<routes xmlns:xsi="http://www.w3.org/2001/XMLSchema-instance" xsi:noNamespaceSchemaLocation="http://sumo.dlr.de/xsd/routes_file.xsd">
    <vType id="motorcycle_motorcycle" vClass="motorcycle"/>
    <trip id="motorcycle0" depart="0.00" from="E16" to="E13" departLane="best" type="motorcycle_motorcycle" departSpeed="max"/>
    <trip id="motorcycle1" depart="9.98" from="E7" to="E10" departLane="best" type="motorcycle_motorcycle"/>
    <trip id="motorcycle2" depart="19.97" from="E12" to="E2" departLane="best" type="motorcycle_motorcycle" departSpeed="max"/>
    <trip id="motorcycle3" depart="29.95" from="E0" to="E13" departLane="best" type="motorcycle_motorcycle"/>
    <trip id="motorcycle4" depart="39.94" from="E23" to="E20" departLane="best" type="motorcycle_motorcycle" departSpeed="max"/>
    <trip id="motorcycle5" depart="49.92" from="E12" to="E20" departLane="best" type="motorcycle_motorcycle" departSpeed="max"/>
    <trip id="motorcycle6" depart="59.91" from="E5" to="E22" departLane="best" type="motorcycle_motorcycle"/>
    <trip id="motorcycle7" depart="69.89" from="E18" to="E10" departLane="best" type="motorcycle_motorcycle" departSpeed="max"/>
    <trip id="motorcycle8" depart="79.88" from="E9" to="E15" departLane="best" type="motorcycle_motorcycle" departSpeed="max"/>
    <trip id="motorcycle9" depart="89.86" from="E18" to="E20" departLane="best" type="motorcycle_motorcycle" departSpeed="max"/>
    <trip id="motorcycle10" depart="99.85" from="E5" to="E20" departLane="best" type="motorcycle_motorcycle"/>
    <trip id="motorcycle11" depart="109.83" from="E23" to="E1" departLane="best" type="motorcycle_motorcycle" departSpeed="max"/>
    <trip id="motorcycle12" depart="119.82" from="E12" to="E14" departLane="best" type="motorcycle_motorcycle" departSpeed="max"/>
    <trip id="motorcycle13" depart="129.80" from="E11" to="E14" departLane="best" type="motorcycle_motorcycle" departSpeed="max"/>
    <trip id="motorcycle14" depart="139.79" from="E23" to="E15" departLane="best" type="motorcycle_motorcycle" departSpeed="max"/>
    <trip id="motorcycle15" depart="149.77" from="E18" to="E13" departLane="best" type="motorcycle_motorcycle" departSpeed="max"/>
    <trip id="motorcycle16" depart="159.76" from="E16" to="E8" departLane="best" type="motorcycle_motorcycle" departSpeed="max"/>
    <trip id="motorcycle17" depart="169.74" from="E23" to="E20" departLane="best" type="motorcycle_motorcycle" departSpeed="max"/>
    <trip id="motorcycle18" depart="179.73" from="E11" to="E15" departLane="best" type="motorcycle_motorcycle" departSpeed="max"/>
    <trip id="motorcycle19" depart="189.71" from="E9" to="E22" departLane="best" type="motorcycle_motorcycle" departSpeed="max"/>
    <trip id="motorcycle20" depart="199.70" from="E21" to="E22" departLane="best" type="motorcycle_motorcycle" departSpeed="max"/>
    <trip id="motorcycle21" depart="209.68" from="E16" to="E14" departLane="best" type="motorcycle_motorcycle" departSpeed="max"/>
    <trip id="motorcycle22" depart="219.67" from="E12" to="E8" departLane="best" type="motorcycle_motorcycle" departSpeed="max"/>
    <trip id="motorcycle23" depart="229.65" from="E23" to="E15" departLane="best" type="motorcycle_motorcycle" departSpeed="max"/>
    <trip id="motorcycle24" depart="239.64" from="E7" to="E17" departLane="best" type="motorcycle_motorcycle"/>
    <trip id="motorcycle25" depart="249.62" from="E16" to="E13" departLane="best" type="motorcycle_motorcycle" departSpeed="max"/>
    <trip id="motorcycle26" depart="259.61" from="E21" to="E14" departLane="best" type="motorcycle_motorcycle" departSpeed="max"/>
    <trip id="motorcycle27" depart="269.59" from="E18" to="E13" departLane="best" type="motorcycle_motorcycle" departSpeed="max"/>
    <trip id="motorcycle28" depart="279.58" from="E9" to="E2" departLane="best" type="motorcycle_motorcycle" departSpeed="max"/>
    <trip id="motorcycle29" depart="289.56" from="E11" to="E1" departLane="best" type="motorcycle_motorcycle" departSpeed="max"/>
    <trip id="motorcycle30" depart="299.55" from="E11" to="E22" departLane="best" type="motorcycle_motorcycle" departSpeed="max"/>
    <trip id="motorcycle31" depart="309.53" from="E1" to="E15" departLane="best" type="motorcycle_motorcycle"/>
    <trip id="motorcycle32" depart="319.52" from="E9" to="E2" departLane="best" type="motorcycle_motorcycle" departSpeed="max"/>
    <trip id="motorcycle33" depart="329.50" from="E9" to="E6" departLane="best" type="motorcycle_motorcycle" departSpeed="max"/>
    <trip id="motorcycle34" depart="339.49" from="E16" to="E22" departLane="best" type="motorcycle_motorcycle" departSpeed="max"/>
    <trip id="motorcycle35" depart="349.47" from="E11" to="E17" departLane="best" type="motorcycle_motorcycle" departSpeed="max"/>
    <trip id="motorcycle36" depart="359.46" from="E19" to="E8" departLane="best" type="motorcycle_motorcycle" departSpeed="max"/>
    <trip id="motorcycle37" depart="369.44" from="E16" to="E22" departLane="best" type="motorcycle_motorcycle" departSpeed="max"/>
    <trip id="motorcycle38" depart="379.43" from="E21" to="E10" departLane="best" type="motorcycle_motorcycle" departSpeed="max"/>
    <trip id="motorcycle39" depart="389.41" from="E0" to="E14" departLane="best" type="motorcycle_motorcycle"/>
    <trip id="motorcycle40" depart="399.40" from="E16" to="E1" departLane="best" type="motorcycle_motorcycle" departSpeed="max"/>
    <trip id="motorcycle41" depart="409.38" from="E7" to="E8" departLane="best" type="motorcycle_motorcycle"/>
    <trip id="motorcycle42" depart="419.37" from="E11" to="E17" departLane="best" type="motorcycle_motorcycle" departSpeed="max"/>
    <trip id="motorcycle43" depart="429.35" from="E4" to="E10" departLane="best" type="motorcycle_motorcycle"/>
    <trip id="motorcycle44" depart="439.34" from="E19" to="E20" departLane="best" type="motorcycle_motorcycle" departSpeed="max"/>
    <trip id="motorcycle45" depart="449.32" from="E16" to="E6" departLane="best" type="motorcycle_motorcycle" departSpeed="max"/>
    <trip id="motorcycle46" depart="459.31" from="E19" to="E13" departLane="best" type="motorcycle_motorcycle" departSpeed="max"/>
    <trip id="motorcycle47" depart="469.29" from="E12" to="E14" departLane="best" type="motorcycle_motorcycle" departSpeed="max"/>
    <trip id="motorcycle48" depart="479.28" from="E9" to="E22" departLane="best" type="motorcycle_motorcycle" departSpeed="max"/>
    <trip id="motorcycle49" depart="489.26" from="E19" to="E2" departLane="best" type="motorcycle_motorcycle" departSpeed="max"/>
    <trip id="motorcycle50" depart="499.25" from="E11" to="E13" departLane="best" type="motorcycle_motorcycle" departSpeed="max"/>
    <trip id="motorcycle51" depart="509.23" from="E18" to="E20" departLane="best" type="motorcycle_motorcycle" departSpeed="max"/>
    <trip id="motorcycle52" depart="519.22" from="E12" to="E7" departLane="best" type="motorcycle_motorcycle" departSpeed="max"/>
    <trip id="motorcycle53" depart="529.20" from="E12" to="E22" departLane="best" type="motorcycle_motorcycle" departSpeed="max"/>
    <trip id="motorcycle54" depart="539.19" from="E12" to="E10" departLane="best" type="motorcycle_motorcycle" departSpeed="max"/>
    <trip id="motorcycle55" depart="549.17" from="E9" to="E20" departLane="best" type="motorcycle_motorcycle" departSpeed="max"/>
    <trip id="motorcycle56" depart="559.16" from="E19" to="E4" departLane="best" type="motorcycle_motorcycle" departSpeed="max"/>
    <trip id="motorcycle57" depart="569.14" from="E5" to="E13" departLane="best" type="motorcycle_motorcycle"/>
    <trip id="motorcycle58" depart="579.13" from="E11" to="E17" departLane="best" type="motorcycle_motorcycle" departSpeed="max"/>
    <trip id="motorcycle59" depart="589.11" from="E19" to="E17" departLane="best" type="motorcycle_motorcycle" departSpeed="max"/>
    <trip id="motorcycle60" depart="599.10" from="E9" to="E10" departLane="best" type="motorcycle_motorcycle" departSpeed="max"/>
    <trip id="motorcycle61" depart="609.08" from="E18" to="E15" departLane="best" type="motorcycle_motorcycle" departSpeed="max"/>
    <trip id="motorcycle62" depart="619.07" from="E6" to="E13" departLane="best" type="motorcycle_motorcycle"/>
    <trip id="motorcycle63" depart="629.05" from="E12" to="E17" departLane="best" type="motorcycle_motorcycle" departSpeed="max"/>
    <trip id="motorcycle64" depart="639.04" from="E19" to="E14" departLane="best" type="motorcycle_motorcycle" departSpeed="max"/>
    <trip id="motorcycle65" depart="649.02" from="E12" to="E8" departLane="best" type="motorcycle_motorcycle" departSpeed="max"/>
    <trip id="motorcycle66" depart="659.01" from="E21" to="E1" departLane="best" type="motorcycle_motorcycle" departSpeed="max"/>
    <trip id="motorcycle67" depart="668.99" from="E9" to="E6" departLane="best" type="motorcycle_motorcycle" departSpeed="max"/>
    <trip id="motorcycle68" depart="678.98" from="E19" to="E13" departLane="best" type="motorcycle_motorcycle" departSpeed="max"/>
    <trip id="motorcycle69" depart="688.96" from="E18" to="E8" departLane="best" type="motorcycle_motorcycle" departSpeed="max"/>
    <trip id="motorcycle70" depart="698.95" from="E19" to="E17" departLane="best" type="motorcycle_motorcycle" departSpeed="max"/>
    <trip id="motorcycle71" depart="708.93" from="E21" to="E3" departLane="best" type="motorcycle_motorcycle" departSpeed="max"/>
    <trip id="motorcycle72" depart="718.92" from="E11" to="E14" departLane="best" type="motorcycle_motorcycle" departSpeed="max"/>
    <trip id="motorcycle73" depart="728.90" from="E9" to="E20" departLane="best" type="motorcycle_motorcycle" departSpeed="max"/>
    <trip id="motorcycle74" depart="738.89" from="E21" to="E3" departLane="best" type="motorcycle_motorcycle" departSpeed="max"/>
    <trip id="motorcycle75" depart="748.87" from="E11" to="E8" departLane="best" type="motorcycle_motorcycle" departSpeed="max"/>
    <trip id="motorcycle76" depart="758.85" from="E21" to="E22" departLane="best" type="motorcycle_motorcycle" departSpeed="max"/>
    <trip id="motorcycle77" depart="768.84" from="E12" to="E10" departLane="best" type="motorcycle_motorcycle" departSpeed="max"/>
    <trip id="motorcycle78" depart="778.82" from="E19" to="E20" departLane="best" type="motorcycle_motorcycle" departSpeed="max"/>
    <trip id="motorcycle79" depart="788.81" from="E12" to="E15" departLane="best" type="motorcycle_motorcycle" departSpeed="max"/>
    <trip id="motorcycle80" depart="798.79" from="E23" to="E14" departLane="best" type="motorcycle_motorcycle" departSpeed="max"/>
    <trip id="motorcycle81" depart="808.78" from="E16" to="E8" departLane="best" type="motorcycle_motorcycle" departSpeed="max"/>
    <trip id="motorcycle82" depart="818.76" from="E7" to="E7" departLane="best" type="motorcycle_motorcycle"/>
    <trip id="motorcycle83" depart="828.75" from="E18" to="E10" departLane="best" type="motorcycle_motorcycle" departSpeed="max"/>
    <trip id="motorcycle84" depart="838.73" from="E21" to="E8" departLane="best" type="motorcycle_motorcycle" departSpeed="max"/>
    <trip id="motorcycle85" depart="848.72" from="E5" to="E14" departLane="best" type="motorcycle_motorcycle"/>
    <trip id="motorcycle86" depart="858.70" from="E23" to="E8" departLane="best" type="motorcycle_motorcycle" departSpeed="max"/>
    <trip id="motorcycle87" depart="868.69" from="E11" to="E20" departLane="best" type="motorcycle_motorcycle" departSpeed="max"/>
    <trip id="motorcycle88" depart="878.67" from="E16" to="E20" departLane="best" type="motorcycle_motorcycle" departSpeed="max"/>
    <trip id="motorcycle89" depart="888.66" from="E3" to="E13" departLane="best" type="motorcycle_motorcycle"/>
    <trip id="motorcycle90" depart="898.64" from="E23" to="E14" departLane="best" type="motorcycle_motorcycle" departSpeed="max"/>
    <trip id="motorcycle91" depart="908.63" from="E19" to="E7" departLane="best" type="motorcycle_motorcycle" departSpeed="max"/>
    <trip id="motorcycle92" depart="918.61" from="E19" to="E14" departLane="best" type="motorcycle_motorcycle" departSpeed="max"/>
    <trip id="motorcycle93" depart="928.60" from="E0" to="E4" departLane="best" type="motorcycle_motorcycle"/>
    <trip id="motorcycle94" depart="938.58" from="E23" to="E14" departLane="best" type="motorcycle_motorcycle" departSpeed="max"/>
    <trip id="motorcycle95" depart="948.57" from="E7" to="E20" departLane="best" type="motorcycle_motorcycle"/>
    <trip id="motorcycle96" depart="958.55" from="E5" to="E6" departLane="best" type="motorcycle_motorcycle"/>
    <trip id="motorcycle97" depart="968.54" from="E12" to="E10" departLane="best" type="motorcycle_motorcycle" departSpeed="max"/>
    <trip id="motorcycle98" depart="978.52" from="E18" to="E20" departLane="best" type="motorcycle_motorcycle" departSpeed="max"/>
    <trip id="motorcycle99" depart="988.51" from="E11" to="E8" departLane="best" type="motorcycle_motorcycle" departSpeed="max"/>
    <trip id="motorcycle100" depart="998.49" from="E16" to="E8" departLane="best" type="motorcycle_motorcycle" departSpeed="max"/>
    <trip id="motorcycle101" depart="1008.48" from="E5" to="E6" departLane="best" type="motorcycle_motorcycle"/>
    <trip id="motorcycle102" depart="1018.46" from="E5" to="E14" departLane="best" type="motorcycle_motorcycle"/>
    <trip id="motorcycle103" depart="1028.45" from="E4" to="E10" departLane="best" type="motorcycle_motorcycle"/>
    <trip id="motorcycle104" depart="1038.43" from="E6" to="E6" departLane="best" type="motorcycle_motorcycle"/>
    <trip id="motorcycle105" depart="1048.42" from="E19" to="E14" departLane="best" type="motorcycle_motorcycle" departSpeed="max"/>
    <trip id="motorcycle106" depart="1058.40" from="E5" to="E13" departLane="best" type="motorcycle_motorcycle"/>
    <trip id="motorcycle107" depart="1068.39" from="E0" to="E13" departLane="best" type="motorcycle_motorcycle"/>
    <trip id="motorcycle108" depart="1078.37" from="E16" to="E6" departLane="best" type="motorcycle_motorcycle" departSpeed="max"/>
    <trip id="motorcycle109" depart="1088.36" from="E9" to="E14" departLane="best" type="motorcycle_motorcycle" departSpeed="max"/>
    <trip id="motorcycle110" depart="1098.34" from="E23" to="E15" departLane="best" type="motorcycle_motorcycle" departSpeed="max"/>
    <trip id="motorcycle111" depart="1108.33" from="E9" to="E2" departLane="best" type="motorcycle_motorcycle" departSpeed="max"/>
    <trip id="motorcycle112" depart="1118.31" from="E9" to="E10" departLane="best" type="motorcycle_motorcycle" departSpeed="max"/>
    <trip id="motorcycle113" depart="1128.30" from="E9" to="E13" departLane="best" type="motorcycle_motorcycle" departSpeed="max"/>
    <trip id="motorcycle114" depart="1138.28" from="E9" to="E14" departLane="best" type="motorcycle_motorcycle" departSpeed="max"/>
    <trip id="motorcycle115" depart="1148.27" from="E11" to="E17" departLane="best" type="motorcycle_motorcycle" departSpeed="max"/>
    <trip id="motorcycle116" depart="1158.25" from="E3" to="E14" departLane="best" type="motorcycle_motorcycle"/>
    <trip id="motorcycle117" depart="1168.24" from="E18" to="E20" departLane="best" type="motorcycle_motorcycle" departSpeed="max"/>
    <trip id="motorcycle118" depart="1178.22" from="E23" to="E14" departLane="best" type="motorcycle_motorcycle" departSpeed="max"/>
    <trip id="motorcycle119" depart="1188.21" from="E16" to="E6" departLane="best" type="motorcycle_motorcycle" departSpeed="max"/>
    <trip id="motorcycle120" depart="1198.19" from="E3" to="E14" departLane="best" type="motorcycle_motorcycle"/>
    <trip id="motorcycle121" depart="1208.18" from="E16" to="E15" departLane="best" type="motorcycle_motorcycle" departSpeed="max"/>
    <trip id="motorcycle122" depart="1218.16" from="E18" to="E14" departLane="best" type="motorcycle_motorcycle" departSpeed="max"/>
    <trip id="motorcycle123" depart="1228.15" from="E11" to="E17" departLane="best" type="motorcycle_motorcycle" departSpeed="max"/>
    <trip id="motorcycle124" depart="1238.13" from="E9" to="E22" departLane="best" type="motorcycle_motorcycle" departSpeed="max"/>
    <trip id="motorcycle125" depart="1248.12" from="E7" to="E20" departLane="best" type="motorcycle_motorcycle"/>
    <trip id="motorcycle126" depart="1258.10" from="E16" to="E20" departLane="best" type="motorcycle_motorcycle" departSpeed="max"/>
    <trip id="motorcycle127" depart="1268.09" from="E0" to="E14" departLane="best" type="motorcycle_motorcycle"/>
    <trip id="motorcycle128" depart="1278.07" from="E19" to="E20" departLane="best" type="motorcycle_motorcycle" departSpeed="max"/>
    <trip id="motorcycle129" depart="1288.06" from="E23" to="E17" departLane="best" type="motorcycle_motorcycle" departSpeed="max"/>
    <trip id="motorcycle130" depart="1298.04" from="E19" to="E13" departLane="best" type="motorcycle_motorcycle" departSpeed="max"/>
    <trip id="motorcycle131" depart="1308.03" from="E19" to="E7" departLane="best" type="motorcycle_motorcycle" departSpeed="max"/>
    <trip id="motorcycle132" depart="1318.01" from="E5" to="E13" departLane="best" type="motorcycle_motorcycle"/>
    <trip id="motorcycle133" depart="1328.00" from="E11" to="E2" departLane="best" type="motorcycle_motorcycle" departSpeed="max"/>
    <trip id="motorcycle134" depart="1337.98" from="E23" to="E15" departLane="best" type="motorcycle_motorcycle" departSpeed="max"/>
    <trip id="motorcycle135" depart="1347.97" from="E23" to="E13" departLane="best" type="motorcycle_motorcycle" departSpeed="max"/>
    <trip id="motorcycle136" depart="1357.95" from="E12" to="E17" departLane="best" type="motorcycle_motorcycle" departSpeed="max"/>
    <trip id="motorcycle137" depart="1367.94" from="E18" to="E22" departLane="best" type="motorcycle_motorcycle" departSpeed="max"/>
    <trip id="motorcycle138" depart="1377.92" from="E12" to="E22" departLane="best" type="motorcycle_motorcycle" departSpeed="max"/>
    <trip id="motorcycle139" depart="1387.91" from="E19" to="E13" departLane="best" type="motorcycle_motorcycle" departSpeed="max"/>
    <trip id="motorcycle140" depart="1397.89" from="E4" to="E4" departLane="best" type="motorcycle_motorcycle"/>
    <trip id="motorcycle141" depart="1407.88" from="E11" to="E17" departLane="best" type="motorcycle_motorcycle" departSpeed="max"/>
    <trip id="motorcycle142" depart="1417.86" from="E12" to="E8" departLane="best" type="motorcycle_motorcycle" departSpeed="max"/>
    <trip id="motorcycle143" depart="1427.85" from="E23" to="E8" departLane="best" type="motorcycle_motorcycle" departSpeed="max"/>
    <trip id="motorcycle144" depart="1437.83" from="E21" to="E8" departLane="best" type="motorcycle_motorcycle" departSpeed="max"/>
    <trip id="motorcycle145" depart="1447.82" from="E7" to="E20" departLane="best" type="motorcycle_motorcycle"/>
    <trip id="motorcycle146" depart="1457.80" from="E5" to="E20" departLane="best" type="motorcycle_motorcycle"/>
    <trip id="motorcycle147" depart="1467.79" from="E19" to="E14" departLane="best" type="motorcycle_motorcycle" departSpeed="max"/>
    <trip id="motorcycle148" depart="1477.77" from="E12" to="E22" departLane="best" type="motorcycle_motorcycle" departSpeed="max"/>
    <trip id="motorcycle149" depart="1487.76" from="E23" to="E14" departLane="best" type="motorcycle_motorcycle" departSpeed="max"/>
    <trip id="motorcycle150" depart="1497.74" from="E16" to="E14" departLane="best" type="motorcycle_motorcycle" departSpeed="max"/>
    <trip id="motorcycle151" depart="1507.73" from="E12" to="E22" departLane="best" type="motorcycle_motorcycle" departSpeed="max"/>
    <trip id="motorcycle152" depart="1517.71" from="E23" to="E1" departLane="best" type="motorcycle_motorcycle" departSpeed="max"/>
    <trip id="motorcycle153" depart="1527.69" from="E18" to="E20" departLane="best" type="motorcycle_motorcycle" departSpeed="max"/>
    <trip id="motorcycle154" depart="1537.68" from="E18" to="E13" departLane="best" type="motorcycle_motorcycle" departSpeed="max"/>
    <trip id="motorcycle155" depart="1547.66" from="E19" to="E7" departLane="best" type="motorcycle_motorcycle" departSpeed="max"/>
    <trip id="motorcycle156" depart="1557.65" from="E21" to="E22" departLane="best" type="motorcycle_motorcycle" departSpeed="max"/>
    <trip id="motorcycle157" depart="1567.63" from="E18" to="E0" departLane="best" type="motorcycle_motorcycle" departSpeed="max"/>
    <trip id="motorcycle158" depart="1577.62" from="E18" to="E4" departLane="best" type="motorcycle_motorcycle" departSpeed="max"/>
    <trip id="motorcycle159" depart="1587.60" from="E18" to="E22" departLane="best" type="motorcycle_motorcycle" departSpeed="max"/>
    <trip id="motorcycle160" depart="1597.59" from="E18" to="E10" departLane="best" type="motorcycle_motorcycle" departSpeed="max"/>
    <trip id="motorcycle161" depart="1607.57" from="E19" to="E10" departLane="best" type="motorcycle_motorcycle" departSpeed="max"/>
    <trip id="motorcycle162" depart="1617.56" from="E18" to="E20" departLane="best" type="motorcycle_motorcycle" departSpeed="max"/>
    <trip id="motorcycle163" depart="1627.54" from="E0" to="E22" departLane="best" type="motorcycle_motorcycle"/>
    <trip id="motorcycle164" depart="1637.53" from="E11" to="E17" departLane="best" type="motorcycle_motorcycle" departSpeed="max"/>
    <trip id="motorcycle165" depart="1647.51" from="E1" to="E15" departLane="best" type="motorcycle_motorcycle"/>
    <trip id="motorcycle166" depart="1657.50" from="E12" to="E14" departLane="best" type="motorcycle_motorcycle" departSpeed="max"/>
    <trip id="motorcycle167" depart="1667.48" from="E16" to="E1" departLane="best" type="motorcycle_motorcycle" departSpeed="max"/>
    <trip id="motorcycle168" depart="1677.47" from="E0" to="E2" departLane="best" type="motorcycle_motorcycle"/>
    <trip id="motorcycle169" depart="1687.45" from="E9" to="E15" departLane="best" type="motorcycle_motorcycle" departSpeed="max"/>
    <trip id="motorcycle170" depart="1697.44" from="E23" to="E4" departLane="best" type="motorcycle_motorcycle" departSpeed="max"/>
    <trip id="motorcycle171" depart="1707.42" from="E23" to="E4" departLane="best" type="motorcycle_motorcycle" departSpeed="max"/>
    <trip id="motorcycle172" depart="1717.41" from="E9" to="E13" departLane="best" type="motorcycle_motorcycle" departSpeed="max"/>
    <trip id="motorcycle173" depart="1727.39" from="E0" to="E10" departLane="best" type="motorcycle_motorcycle"/>
    <trip id="motorcycle174" depart="1737.38" from="E11" to="E22" departLane="best" type="motorcycle_motorcycle" departSpeed="max"/>
    <trip id="motorcycle175" depart="1747.36" from="E21" to="E13" departLane="best" type="motorcycle_motorcycle" departSpeed="max"/>
    <trip id="motorcycle176" depart="1757.35" from="E23" to="E4" departLane="best" type="motorcycle_motorcycle" departSpeed="max"/>
    <trip id="motorcycle177" depart="1767.33" from="E12" to="E20" departLane="best" type="motorcycle_motorcycle" departSpeed="max"/>
    <trip id="motorcycle178" depart="1777.32" from="E3" to="E10" departLane="best" type="motorcycle_motorcycle"/>
    <trip id="motorcycle179" depart="1787.30" from="E5" to="E8" departLane="best" type="motorcycle_motorcycle"/>
    <trip id="motorcycle180" depart="1797.29" from="E16" to="E22" departLane="best" type="motorcycle_motorcycle" departSpeed="max"/>
    <trip id="motorcycle181" depart="1807.27" from="E9" to="E15" departLane="best" type="motorcycle_motorcycle" departSpeed="max"/>
    <trip id="motorcycle182" depart="1817.26" from="E3" to="E1" departLane="best" type="motorcycle_motorcycle"/>
    <trip id="motorcycle183" depart="1827.24" from="E23" to="E22" departLane="best" type="motorcycle_motorcycle" departSpeed="max"/>
    <trip id="motorcycle184" depart="1837.23" from="E11" to="E8" departLane="best" type="motorcycle_motorcycle" departSpeed="max"/>
    <trip id="motorcycle185" depart="1847.21" from="E19" to="E15" departLane="best" type="motorcycle_motorcycle" departSpeed="max"/>
    <trip id="motorcycle186" depart="1857.20" from="E11" to="E8" departLane="best" type="motorcycle_motorcycle" departSpeed="max"/>
    <trip id="motorcycle187" depart="1867.18" from="E23" to="E17" departLane="best" type="motorcycle_motorcycle" departSpeed="max"/>
    <trip id="motorcycle188" depart="1877.17" from="E3" to="E8" departLane="best" type="motorcycle_motorcycle"/>
    <trip id="motorcycle189" depart="1887.15" from="E16" to="E5" departLane="best" type="motorcycle_motorcycle" departSpeed="max"/>
    <trip id="motorcycle190" depart="1897.14" from="E16" to="E6" departLane="best" type="motorcycle_motorcycle" departSpeed="max"/>
    <trip id="motorcycle191" depart="1907.12" from="E19" to="E20" departLane="best" type="motorcycle_motorcycle" departSpeed="max"/>
    <trip id="motorcycle192" depart="1917.11" from="E18" to="E0" departLane="best" type="motorcycle_motorcycle" departSpeed="max"/>
    <trip id="motorcycle193" depart="1927.09" from="E6" to="E13" departLane="best" type="motorcycle_motorcycle"/>
    <trip id="motorcycle194" depart="1937.08" from="E23" to="E14" departLane="best" type="motorcycle_motorcycle" departSpeed="max"/>
    <trip id="motorcycle195" depart="1947.06" from="E19" to="E4" departLane="best" type="motorcycle_motorcycle" departSpeed="max"/>
    <trip id="motorcycle196" depart="1957.05" from="E23" to="E22" departLane="best" type="motorcycle_motorcycle" departSpeed="max"/>
    <trip id="motorcycle197" depart="1967.03" from="E11" to="E13" departLane="best" type="motorcycle_motorcycle" departSpeed="max"/>
    <trip id="motorcycle198" depart="1977.02" from="E23" to="E14" departLane="best" type="motorcycle_motorcycle" departSpeed="max"/>
    <trip id="motorcycle199" depart="1987.00" from="E21" to="E17" departLane="best" type="motorcycle_motorcycle" departSpeed="max"/>
    <trip id="motorcycle200" depart="1996.99" from="E3" to="E14" departLane="best" type="motorcycle_motorcycle"/>
    <trip id="motorcycle201" depart="2006.97" from="E23" to="E14" departLane="best" type="motorcycle_motorcycle" departSpeed="max"/>
    <trip id="motorcycle202" depart="2016.96" from="E16" to="E10" departLane="best" type="motorcycle_motorcycle" departSpeed="max"/>
    <trip id="motorcycle203" depart="2026.94" from="E12" to="E10" departLane="best" type="motorcycle_motorcycle" departSpeed="max"/>
    <trip id="motorcycle204" depart="2036.93" from="E9" to="E2" departLane="best" type="motorcycle_motorcycle" departSpeed="max"/>
    <trip id="motorcycle205" depart="2046.91" from="E16" to="E10" departLane="best" type="motorcycle_motorcycle" departSpeed="max"/>
    <trip id="motorcycle206" depart="2056.90" from="E9" to="E20" departLane="best" type="motorcycle_motorcycle" departSpeed="max"/>
    <trip id="motorcycle207" depart="2066.88" from="E23" to="E10" departLane="best" type="motorcycle_motorcycle" departSpeed="max"/>
    <trip id="motorcycle208" depart="2076.87" from="E19" to="E17" departLane="best" type="motorcycle_motorcycle" departSpeed="max"/>
    <trip id="motorcycle209" depart="2086.85" from="E12" to="E1" departLane="best" type="motorcycle_motorcycle" departSpeed="max"/>
    <trip id="motorcycle210" depart="2096.84" from="E9" to="E17" departLane="best" type="motorcycle_motorcycle" departSpeed="max"/>
    <trip id="motorcycle211" depart="2106.82" from="E5" to="E15" departLane="best" type="motorcycle_motorcycle"/>
    <trip id="motorcycle212" depart="2116.81" from="E21" to="E14" departLane="best" type="motorcycle_motorcycle" departSpeed="max"/>
    <trip id="motorcycle213" depart="2126.79" from="E9" to="E10" departLane="best" type="motorcycle_motorcycle" departSpeed="max"/>
    <trip id="motorcycle214" depart="2136.78" from="E9" to="E14" departLane="best" type="motorcycle_motorcycle" departSpeed="max"/>
    <trip id="motorcycle215" depart="2146.76" from="E3" to="E8" departLane="best" type="motorcycle_motorcycle"/>
    <trip id="motorcycle216" depart="2156.75" from="E23" to="E10" departLane="best" type="motorcycle_motorcycle" departSpeed="max"/>
    <trip id="motorcycle217" depart="2166.73" from="E12" to="E1" departLane="best" type="motorcycle_motorcycle" departSpeed="max"/>
    <trip id="motorcycle218" depart="2176.72" from="E0" to="E17" departLane="best" type="motorcycle_motorcycle"/>
    <trip id="motorcycle219" depart="2186.70" from="E21" to="E14" departLane="best" type="motorcycle_motorcycle" departSpeed="max"/>
    <trip id="motorcycle220" depart="2196.69" from="E12" to="E22" departLane="best" type="motorcycle_motorcycle" departSpeed="max"/>
    <trip id="motorcycle221" depart="2206.67" from="E23" to="E17" departLane="best" type="motorcycle_motorcycle" departSpeed="max"/>
    <trip id="motorcycle222" depart="2216.66" from="E23" to="E8" departLane="best" type="motorcycle_motorcycle" departSpeed="max"/>
    <trip id="motorcycle223" depart="2226.64" from="E23" to="E8" departLane="best" type="motorcycle_motorcycle" departSpeed="max"/>
    <trip id="motorcycle224" depart="2236.63" from="E19" to="E20" departLane="best" type="motorcycle_motorcycle" departSpeed="max"/>
    <trip id="motorcycle225" depart="2246.61" from="E5" to="E1" departLane="best" type="motorcycle_motorcycle"/>