<?xml version="1.0" encoding="UTF-8"?>

<!-- generated on 2025-07-01 15:12:12.282743 by randomTrips.py v1_23_1+0000-676720d13f6
<configuration>
    <net-file value="osm.net.xml.gz"/>
    <output-trip-file value="osm.pedestrian.trips.xml"/>
    <route-file value="osm.pedestrian.rou.xml"/>
    <pedestrians value="True"/>
    <prefix value="ped"/>
    <vehicle-class value="pedestrian"/>
    <fringe-factor value="1"/>
    <max-distance value="2000.0"/>
    <insertion-density value="100.0"/>
</configuration>
-->

<routes xmlns:xsi="http://www.w3.org/2001/XMLSchema-instance" xsi:noNamespaceSchemaLocation="http://sumo.dlr.de/xsd/routes_file.xsd">
    <vType id="ped_pedestrian" vClass="pedestrian"/>
    <person id="ped0" depart="0.00" type="ped_pedestrian">
        <walk from="E22" to="E0"/>
    </person>
    <person id="ped1" depart="3.99" type="ped_pedestrian">
        <walk from="E14" to="E13"/>
    </person>
    <person id="ped2" depart="7.99" type="ped_pedestrian">
        <walk from="E3" to="E23"/>
    </person>
    <person id="ped3" depart="11.98" type="ped_pedestrian">
        <walk from="E7" to="E10"/>
    </person>
    <person id="ped4" depart="15.98" type="ped_pedestrian">
        <walk from="E18" to="E0"/>
    </person>
    <person id="ped5" depart="19.97" type="ped_pedestrian">
        <walk from="E13" to="E2"/>
    </person>
    <person id="ped6" depart="23.96" type="ped_pedestrian">
        <walk from="E0" to="E12"/>
    </person>
    <person id="ped7" depart="27.96" type="ped_pedestrian">
        <walk from="E22" to="E20"/>
    </person>
    <person id="ped8" depart="31.95" type="ped_pedestrian">
        <walk from="E13" to="E21"/>
    </person>
    <person id="ped9" depart="35.95" type="ped_pedestrian">
        <walk from="E5" to="E0"/>
    </person>
    <person id="ped10" depart="39.94" type="ped_pedestrian">
        <walk from="E5" to="E23"/>
    </person>
    <person id="ped11" depart="43.93" type="ped_pedestrian">
        <walk from="E16" to="E11"/>
    </person>
    <person id="ped12" depart="47.93" type="ped_pedestrian">
        <walk from="E8" to="E16"/>
    </person>
    <person id="ped13" depart="51.92" type="ped_pedestrian">
        <walk from="E10" to="E10"/>
    </person>
    <person id="ped14" depart="55.92" type="ped_pedestrian">
        <walk from="E6" to="E21"/>
    </person>
    <person id="ped15" depart="59.91" type="ped_pedestrian">
        <walk from="E5" to="E3"/>
    </person>
    <person id="ped16" depart="63.90" type="ped_pedestrian">
        <walk from="E2" to="E9"/>
    </person>
    <person id="ped17" depart="67.90" type="ped_pedestrian">
        <walk from="E17" to="E20"/>
    </person>
    <person id="ped18" depart="71.89" type="ped_pedestrian">
        <walk from="E5" to="E21"/>
    </person>
    <person id="ped19" depart="75.89" type="ped_pedestrian">
        <walk from="E6" to="E20"/>
    </person>
    <person id="ped20" depart="79.88" type="ped_pedestrian">
        <walk from="E23" to="E1"/>
    </person>
    <person id="ped21" depart="83.87" type="ped_pedestrian">
        <walk from="E13" to="E14"/>
    </person>
    <person id="ped22" depart="87.87" type="ped_pedestrian">
        <walk from="E1" to="E13"/>
    </person>
    <person id="ped23" depart="91.86" type="ped_pedestrian">
        <walk from="E10" to="E14"/>
    </person>
    <person id="ped24" depart="95.86" type="ped_pedestrian">
        <walk from="E22" to="E16"/>
    </person>
    <person id="ped25" depart="99.85" type="ped_pedestrian">
        <walk from="E16" to="E13"/>
    </person>
    <person id="ped26" depart="103.84" type="ped_pedestrian">
        <walk from="E14" to="E8"/>
    </person>
    <person id="ped27" depart="107.84" type="ped_pedestrian">
        <walk from="E22" to="E21"/>
    </person>
    <person id="ped28" depart="111.83" type="ped_pedestrian">
        <walk from="E12" to="E3"/>
    </person>
    <person id="ped29" depart="115.83" type="ped_pedestrian">
        <walk from="E11" to="E17"/>
    </person>
    <person id="ped30" depart="119.82" type="ped_pedestrian">
        <walk from="E9" to="E22"/>
    </person>
    <person id="ped31" depart="123.81" type="ped_pedestrian">
        <walk from="E20" to="E23"/>
    </person>
    <person id="ped32" depart="127.81" type="ped_pedestrian">
        <walk from="E6" to="E4"/>
    </person>
    <person id="ped33" depart="131.80" type="ped_pedestrian">
        <walk from="E13" to="E0"/>
    </person>
    <person id="ped34" depart="135.80" type="ped_pedestrian">
        <walk from="E15" to="E14"/>
    </person>
    <person id="ped35" depart="139.79" type="ped_pedestrian">
        <walk from="E13" to="E8"/>
    </person>
    <person id="ped36" depart="143.78" type="ped_pedestrian">
        <walk from="E7" to="E15"/>
    </person>
    <person id="ped37" depart="147.78" type="ped_pedestrian">
        <walk from="E22" to="E17"/>
    </person>
    <person id="ped38" depart="151.77" type="ped_pedestrian">
        <walk from="E7" to="E19"/>
    </person>
    <person id="ped39" depart="155.76" type="ped_pedestrian">
        <walk from="E14" to="E13"/>
    </person>
    <person id="ped40" depart="159.76" type="ped_pedestrian">
        <walk from="E20" to="E14"/>
    </person>
    <person id="ped41" depart="163.75" type="ped_pedestrian">
        <walk from="E21" to="E7"/>
    </person>
    <person id="ped42" depart="167.75" type="ped_pedestrian">
        <walk from="E17" to="E13"/>
    </person>
    <person id="ped43" depart="171.74" type="ped_pedestrian">
        <walk from="E9" to="E2"/>
    </person>
    <person id="ped44" depart="175.73" type="ped_pedestrian">
        <walk from="E10" to="E1"/>
    </person>
    <person id="ped45" depart="179.73" type="ped_pedestrian">
        <walk from="E10" to="E22"/>
    </person>
    <person id="ped46" depart="183.72" type="ped_pedestrian">
        <walk from="E5" to="E18"/>
    </person>
    <person id="ped47" depart="187.72" type="ped_pedestrian">
        <walk from="E1" to="E17"/>
    </person>
    <person id="ped48" depart="191.71" type="ped_pedestrian">
        <walk from="E9" to="E2"/>
    </person>
    <person id="ped49" depart="195.70" type="ped_pedestrian">
        <walk from="E9" to="E6"/>
    </person>
    <person id="ped50" depart="199.70" type="ped_pedestrian">
        <walk from="E0" to="E3"/>
    </person>
    <person id="ped51" depart="203.69" type="ped_pedestrian">
        <walk from="E23" to="E2"/>
    </person>
    <person id="ped52" depart="207.69" type="ped_pedestrian">
        <walk from="E14" to="E22"/>
    </person>
    <person id="ped53" depart="211.68" type="ped_pedestrian">
        <walk from="E10" to="E18"/>
    </person>
    <person id="ped54" depart="215.67" type="ped_pedestrian">
        <walk from="E18" to="E8"/>
    </person>
    <person id="ped55" depart="219.67" type="ped_pedestrian">
        <walk from="E7" to="E14"/>
    </person>
    <person id="ped56" depart="223.66" type="ped_pedestrian">
        <walk from="E2" to="E12"/>
    </person>
    <person id="ped57" depart="227.66" type="ped_pedestrian">
        <walk from="E7" to="E6"/>
    </person>
    <person id="ped58" depart="231.65" type="ped_pedestrian">
        <walk from="E15" to="E22"/>
    </person>
    <person id="ped59" depart="235.64" type="ped_pedestrian">
        <walk from="E21" to="E11"/>
    </person>
    <person id="ped60" depart="239.64" type="ped_pedestrian">
        <walk from="E4" to="E2"/>
    </person>
    <person id="ped61" depart="243.63" type="ped_pedestrian">
        <walk from="E4" to="E2"/>
    </person>
    <person id="ped62" depart="247.63" type="ped_pedestrian">
        <walk from="E0" to="E15"/>
    </person>
    <person id="ped63" depart="251.62" type="ped_pedestrian">
        <walk from="E0" to="E8"/>
    </person>
    <person id="ped64" depart="255.61" type="ped_pedestrian">
        <walk from="E7" to="E5"/>
    </person>
    <person id="ped65" depart="259.61" type="ped_pedestrian">
        <walk from="E15" to="E1"/>
    </person>
    <person id="ped66" depart="263.60" type="ped_pedestrian">
        <walk from="E7" to="E8"/>
    </person>
    <person id="ped67" depart="267.60" type="ped_pedestrian">
        <walk from="E10" to="E19"/>
    </person>
    <person id="ped68" depart="271.59" type="ped_pedestrian">
        <walk from="E1" to="E4"/>
    </person>
    <person id="ped69" depart="275.58" type="ped_pedestrian">
        <walk from="E4" to="E11"/>
    </person>
    <person id="ped70" depart="279.58" type="ped_pedestrian">
        <walk from="E19" to="E20"/>
    </person>
    <person id="ped71" depart="283.57" type="ped_pedestrian">
        <walk from="E14" to="E6"/>
    </person>
    <person id="ped72" depart="287.57" type="ped_pedestrian">
        <walk from="E18" to="E13"/>
    </person>
    <person id="ped73" depart="291.56" type="ped_pedestrian">
        <walk from="E2" to="E3"/>
    </person>
    <person id="ped74" depart="295.55" type="ped_pedestrian">
        <walk from="E12" to="E15"/>
    </person>
    <person id="ped75" depart="299.55" type="ped_pedestrian">
        <walk from="E9" to="E22"/>
    </person>
    <person id="ped76" depart="303.54" type="ped_pedestrian">
        <walk from="E18" to="E2"/>
    </person>
    <person id="ped77" depart="307.54" type="ped_pedestrian">
        <walk from="E10" to="E13"/>
    </person>
    <person id="ped78" depart="311.53" type="ped_pedestrian">
        <walk from="E16" to="E21"/>
    </person>
    <person id="ped79" depart="315.52" type="ped_pedestrian">
        <walk from="E13" to="E13"/>
    </person>
    <person id="ped80" depart="319.52" type="ped_pedestrian">
        <walk from="E1" to="E22"/>
    </person>
    <person id="ped81" depart="323.51" type="ped_pedestrian">
        <walk from="E13" to="E7"/>
    </person>
    <person id="ped82" depart="327.51" type="ped_pedestrian">
        <walk from="E6" to="E1"/>
    </person>
    <person id="ped83" depart="331.50" type="ped_pedestrian">
        <walk from="E13" to="E23"/>
    </person>
    <person id="ped84" depart="335.49" type="ped_pedestrian">
        <walk from="E13" to="E11"/>
    </person>
    <person id="ped85" depart="339.49" type="ped_pedestrian">
        <walk from="E8" to="E20"/>
    </person>
    <person id="ped86" depart="343.48" type="ped_pedestrian">
        <walk from="E19" to="E4"/>
    </person>
    <person id="ped87" depart="347.48" type="ped_pedestrian">
        <walk from="E5" to="E12"/>
    </person>
    <person id="ped88" depart="351.47" type="ped_pedestrian">
        <walk from="E10" to="E18"/>
    </person>
    <person id="ped89" depart="355.46" type="ped_pedestrian">
        <walk from="E18" to="E19"/>
    </person>
    <person id="ped90" depart="359.46" type="ped_pedestrian">
        <walk from="E3" to="E23"/>
    </person>
    <person id="ped91" depart="363.45" type="ped_pedestrian">
        <walk from="E9" to="E10"/>
    </person>
    <person id="ped92" depart="367.45" type="ped_pedestrian">
        <walk from="E17" to="E16"/>
    </person>
    <person id="ped93" depart="371.44" type="ped_pedestrian">
        <walk from="E6" to="E13"/>
    </person>
    <person id="ped94" depart="375.43" type="ped_pedestrian">
        <walk from="E12" to="E18"/>
    </person>
    <person id="ped95" depart="379.43" type="ped_pedestrian">
        <walk from="E18" to="E14"/>
    </person>
    <person id="ped96" depart="383.42" type="ped_pedestrian">
        <walk from="E13" to="E8"/>
    </person>
    <person id="ped97" depart="387.42" type="ped_pedestrian">
        <walk from="E18" to="E6"/>
    </person>
    <person id="ped98" depart="391.41" type="ped_pedestrian">
        <walk from="E20" to="E1"/>
    </person>
    <person id="ped99" depart="395.40" type="ped_pedestrian">
        <walk from="E9" to="E6"/>
    </person>
    <person id="ped100" depart="399.40" type="ped_pedestrian">
        <walk from="E9" to="E8"/>
    </person>
    <person id="ped101" depart="403.39" type="ped_pedestrian">
        <walk from="E6" to="E11"/>
    </person>
    <person id="ped102" depart="407.39" type="ped_pedestrian">
        <walk from="E19" to="E13"/>
    </person>
    <person id="ped103" depart="411.38" type="ped_pedestrian">
        <walk from="E17" to="E1"/>
    </person>
    <person id="ped104" depart="415.37" type="ped_pedestrian">
        <walk from="E17" to="E9"/>
    </person>
    <person id="ped105" depart="419.37" type="ped_pedestrian">
        <walk from="E14" to="E4"/>
    </person>
    <person id="ped106" depart="423.36" type="ped_pedestrian">
        <walk from="E18" to="E18"/>
    </person>
    <person id="ped107" depart="427.36" type="ped_pedestrian">
        <walk from="E8" to="E9"/>
    </person>
    <person id="ped108" depart="431.35" type="ped_pedestrian">
        <walk from="E20" to="E3"/>
    </person>
    <person id="ped109" depart="435.34" type="ped_pedestrian">
        <walk from="E11" to="E15"/>
    </person>
    <person id="ped110" depart="439.34" type="ped_pedestrian">
        <walk from="E9" to="E20"/>
    </person>
    <person id="ped111" depart="443.33" type="ped_pedestrian">
        <walk from="E20" to="E3"/>
    </person>
    <person id="ped112" depart="447.33" type="ped_pedestrian">
        <walk from="E1" to="E21"/>
    </person>
    <person id="ped113" depart="451.32" type="ped_pedestrian">
        <walk from="E2" to="E6"/>
    </person>
    <person id="ped114" depart="455.31" type="ped_pedestrian">
        <walk from="E11" to="E9"/>
    </person>
    <person id="ped115" depart="459.31" type="ped_pedestrian">
        <walk from="E1" to="E12"/>
    </person>
    <person id="ped116" depart="463.30" type="ped_pedestrian">
        <walk from="E21" to="E23"/>
    </person>
    <person id="ped117" depart="467.29" type="ped_pedestrian">
        <walk from="E13" to="E10"/>
    </person>
    <person id="ped118" depart="471.29" type="ped_pedestrian">
        <walk from="E7" to="E13"/>
    </person>
    <person id="ped119" depart="475.28" type="ped_pedestrian">
        <walk from="E21" to="E21"/>
    </person>
    <person id="ped120" depart="479.28" type="ped_pedestrian">
        <walk from="E18" to="E21"/>
    </person>
    <person id="ped121" depart="483.27" type="ped_pedestrian">
        <walk from="E2" to="E8"/>
    </person>
    <person id="ped122" depart="487.26" type="ped_pedestrian">
        <walk from="E12" to="E3"/>
    </person>
    <person id="ped123" depart="491.26" type="ped_pedestrian">
        <walk from="E13" to="E17"/>
    </person>
    <person id="ped124" depart="495.25" type="ped_pedestrian">
        <walk from="E23" to="E15"/>
    </person>
    <person id="ped125" depart="499.25" type="ped_pedestrian">
        <walk from="E15" to="E4"/>
    </person>
    <person id="ped126" depart="503.24" type="ped_pedestrian">
        <walk from="E1" to="E18"/>
    </person>
    <person id="ped127" depart="507.23" type="ped_pedestrian">
        <walk from="E9" to="E9"/>
    </person>
    <person id="ped128" depart="511.23" type="ped_pedestrian">
        <walk from="E1" to="E13"/>
    </person>
    <person id="ped129" depart="515.22" type="ped_pedestrian">
        <walk from="E14" to="E8"/>
    </person>
    <person id="ped130" depart="519.22" type="ped_pedestrian">
        <walk from="E7" to="E7"/>
    </person>
    <person id="ped131" depart="523.21" type="ped_pedestrian">
        <walk from="E16" to="E11"/>
    </person>
    <person id="ped132" depart="527.20" type="ped_pedestrian">
        <walk from="E6" to="E23"/>
    </person>
    <person id="ped133" depart="531.20" type="ped_pedestrian">
        <walk from="E21" to="E9"/>
    </person>
    <person id="ped134" depart="535.19" type="ped_pedestrian">
        <walk from="E22" to="E0"/>
    </person>
    <person id="ped135" depart="539.19" type="ped_pedestrian">
        <walk from="E5" to="E15"/>
    </person>
    <person id="ped136" depart="543.18" type="ped_pedestrian">
        <walk from="E22" to="E8"/>
    </person>
    <person id="ped137" depart="547.17" type="ped_pedestrian">
        <walk from="E11" to="E10"/>
    </person>
    <person id="ped138" depart="551.17" type="ped_pedestrian">
        <walk from="E10" to="E20"/>
    </person>
    <person id="ped139" depart="555.16" type="ped_pedestrian">
        <walk from="E14" to="E21"/>
    </person>
    <person id="ped140" depart="559.16" type="ped_pedestrian">
        <walk from="E3" to="E12"/>
    </person>
    <person id="ped141" depart="563.15" type="ped_pedestrian">
        <walk from="E22" to="E14"/>
    </person>
    <person id="ped142" depart="567.14" type="ped_pedestrian">
        <walk from="E19" to="E7"/>
    </person>
    <person id="ped143" depart="571.14" type="ped_pedestrian">
        <walk from="E6" to="E10"/>
    </person>
    <person id="ped144" depart="575.13" type="ped_pedestrian">
        <walk from="E18" to="E14"/>
    </person>
    <person id="ped145" depart="579.13" type="ped_pedestrian">
        <walk from="E0" to="E4"/>
    </person>
    <person id="ped146" depart="583.12" type="ped_pedestrian">
        <walk from="E22" to="E14"/>
    </person>
    <person id="ped147" depart="587.11" type="ped_pedestrian">
        <walk from="E3" to="E20"/>
    </person>
    <person id="ped148" depart="591.11" type="ped_pedestrian">
        <walk from="E18" to="E0"/>
    </person>
    <person id="ped149" depart="595.10" type="ped_pedestrian">
        <walk from="E1" to="E7"/>
    </person>
    <person id="ped150" depart="599.10" type="ped_pedestrian">
        <walk from="E7" to="E20"/>
    </person>
    <person id="ped151" depart="603.09" type="ped_pedestrian">
        <walk from="E6" to="E20"/>
    </person>
    <person id="ped152" depart="607.08" type="ped_pedestrian">
        <walk from="E11" to="E11"/>
    </person>
    <person id="ped153" depart="611.08" type="ped_pedestrian">
        <walk from="E15" to="E7"/>
    </person>
    <person id="ped154" depart="615.07" type="ped_pedestrian">
        <walk from="E5" to="E6"/>
    </person>
    <person id="ped155" depart="619.07" type="ped_pedestrian">
        <walk from="E7" to="E13"/>
    </person>
    <person id="ped156" depart="623.06" type="ped_pedestrian">
        <walk from="E13" to="E10"/>
    </person>
    <person id="ped157" depart="627.05" type="ped_pedestrian">
        <walk from="E4" to="E7"/>
    </person>
    <person id="ped158" depart="631.05" type="ped_pedestrian">
        <walk from="E17" to="E21"/>
    </person>
    <person id="ped159" depart="635.04" type="ped_pedestrian">
        <walk from="E11" to="E8"/>
    </person>
    <person id="ped160" depart="639.04" type="ped_pedestrian">
        <walk from="E6" to="E9"/>
    </person>
    <person id="ped161" depart="643.03" type="ped_pedestrian">
        <walk from="E5" to="E7"/>
    </person>
    <person id="ped162" depart="647.02" type="ped_pedestrian">
        <walk from="E0" to="E3"/>
    </person>
    <person id="ped163" depart="651.02" type="ped_pedestrian">
        <walk from="E15" to="E8"/>
    </person>
    <person id="ped164" depart="655.01" type="ped_pedestrian">
        <walk from="E5" to="E6"/>
    </person>
    <person id="ped165" depart="659.01" type="ped_pedestrian">
        <walk from="E5" to="E14"/>
    </person>
    <person id="ped166" depart="663.00" type="ped_pedestrian">
        <walk from="E4" to="E10"/>
    </person>
    <person id="ped167" depart="666.99" type="ped_pedestrian">
        <walk from="E6" to="E6"/>
    </person>
    <person id="ped168" depart="670.99" type="ped_pedestrian">
        <walk from="E13" to="E5"/>
    </person>
    <person id="ped169" depart="674.98" type="ped_pedestrian">
        <walk from="E19" to="E15"/>
    </person>
    <person id="ped170" depart="678.98" type="ped_pedestrian">
        <walk from="E5" to="E13"/>
    </person>
    <person id="ped171" depart="682.97" type="ped_pedestrian">
        <walk from="E0" to="E12"/>
    </person>
    <person id="ped172" depart="686.96" type="ped_pedestrian">
        <walk from="E15" to="E6"/>
    </person>
    <person id="ped173" depart="690.96" type="ped_pedestrian">
        <walk from="E9" to="E14"/>
    </person>
    <person id="ped174" depart="694.95" type="ped_pedestrian">
        <walk from="E22" to="E17"/>
    </person>
    <person id="ped175" depart="698.95" type="ped_pedestrian">
        <walk from="E9" to="E2"/>
    </person>
    <person id="ped176" depart="702.94" type="ped_pedestrian">
        <walk from="E8" to="E10"/>
    </person>
    <person id="ped177" depart="706.93" type="ped_pedestrian">
        <walk from="E9" to="E12"/>
    </person>
    <person id="ped178" depart="710.93" type="ped_pedestrian">
        <walk from="E9" to="E14"/>
    </person>
    <person id="ped179" depart="714.92" type="ped_pedestrian">
        <walk from="E10" to="E18"/>
    </person>
    <person id="ped180" depart="718.92" type="ped_pedestrian">
        <walk from="E3" to="E15"/>
    </person>
    <person id="ped181" depart="722.91" type="ped_pedestrian">
        <walk from="E21" to="E2"/>
    </person>
    <person id="ped182" depart="726.90" type="ped_pedestrian">
        <walk from="E17" to="E20"/>
    </person>
    <person id="ped183" depart="730.90" type="ped_pedestrian">
        <walk from="E14" to="E3"/>
    </person>
    <person id="ped184" depart="734.89" type="ped_pedestrian">
        <walk from="E0" to="E8"/>
    </person>
    <person id="ped185" depart="738.89" type="ped_pedestrian">
        <walk from="E2" to="E3"/>
    </person>
    <person id="ped186" depart="742.88" type="ped_pedestrian">
        <walk from="E3" to="E23"/>
    </person>
    <person id="ped187" depart="746.87" type="ped_pedestrian">
        <walk from="E16" to="E1"/>
    </person>
    <person id="ped188" depart="750.87" type="ped_pedestrian">
        <walk from="E22" to="E15"/>
    </person>
    <person id="ped189" depart="754.86" type="ped_pedestrian">
        <walk from="E15" to="E6"/>
    </person>
    <person id="ped190" depart="758.85" type="ped_pedestrian">
        <walk from="E3" to="E15"/>
    </person>
    <person id="ped191" depart="762.85" type="ped_pedestrian">
        <walk from="E15" to="E17"/>
    </person>
    <person id="ped192" depart="766.84" type="ped_pedestrian">
        <walk from="E17" to="E15"/>
    </person>
    <person id="ped193" depart="770.84" type="ped_pedestrian">
        <walk from="E11" to="E18"/>
    </person>
    <person id="ped194" depart="774.83" type="ped_pedestrian">
        <walk from="E8" to="E23"/>
    </person>
    <person id="ped195" depart="778.82" type="ped_pedestrian">
        <walk from="E7" to="E21"/>
    </person>
    <person id="ped196" depart="782.82" type="ped_pedestrian">
        <walk from="E15" to="E20"/>
    </person>
    <person id="ped197" depart="786.81" type="ped_pedestrian">
        <walk from="E0" to="E14"/>
    </person>
    <person id="ped198" depart="790.81" type="ped_pedestrian">
        <walk from="E18" to="E20"/>
    </person>
    <person id="ped199" depart="794.80" type="ped_pedestrian">
        <walk from="E22" to="E19"/>
    </person>
    <person id="ped200" depart="798.79" type="ped_pedestrian">
        <walk from="E18" to="E13"/>
    </person>
    <person id="ped201" depart="802.79" type="ped_pedestrian">
        <walk from="E19" to="E7"/>
    </person>
    <person id="ped202" depart="806.78" type="ped_pedestrian">
        <walk from="E5" to="E12"/>
    </person>
    <person id="ped203" depart="810.78" type="ped_pedestrian">
        <walk from="E10" to="E2"/>
    </person>
    <person id="ped204" depart="814.77" type="ped_pedestrian">
        <walk from="E22" to="E16"/>
    </person>
    <person id="ped205" depart="818.76" type="ped_pedestrian">
        <walk from="E5" to="E4"/>
    </person>
    <person id="ped206" depart="822.76" type="ped_pedestrian">
        <walk from="E23" to="E13"/>
    </person>
    <person id="ped207" depart="826.75" type="ped_pedestrian">
        <walk from="E12" to="E0"/>
    </person>
    <person id="ped208" depart="830.75" type="ped_pedestrian">
        <walk from="E13" to="E19"/>
    </person>
    <person id="ped209" depart="834.74" type="ped_pedestrian">
        <walk from="E6" to="E1"/>
    </person>
    <person id="ped210" depart="838.73" type="ped_pedestrian">
        <walk from="E17" to="E22"/>
    </person>
    <person id="ped211" depart="842.73" type="ped_pedestrian">
        <walk from="E12" to="E23"/>
    </person>
    <person id="ped212" depart="846.72" type="ped_pedestrian">
        <walk from="E19" to="E13"/>
    </person>
    <person id="ped213" depart="850.72" type="ped_pedestrian">
        <walk from="E22" to="E0"/>
    </person>
    <person id="ped214" depart="854.71" type="ped_pedestrian">
        <walk from="E4" to="E4"/>
    </person>
    <person id="ped215" depart="858.70" type="ped_pedestrian">
        <walk from="E10" to="E18"/>
    </person>
    <person id="ped216" depart="862.70" type="ped_pedestrian">
        <walk from="E12" to="E8"/>
    </person>
    <person id="ped217" depart="866.69" type="ped_pedestrian">
        <walk from="E2" to="E1"/>
    </person>
    <person id="ped218" depart="870.69" type="ped_pedestrian">
        <walk from="E13" to="E6"/>
    </person>
    <person id="ped219" depart="874.68" type="ped_pedestrian">
        <walk from="E18" to="E5"/>
    </person>
    <person id="ped220" depart="878.67" type="ped_pedestrian">
        <walk from="E23" to="E9"/>
    </person>
    <person id="ped221" depart="882.67" type="ped_pedestrian">
        <walk from="E21" to="E8"/>
    </person>
    <person id="ped222" depart="886.66" type="ped_pedestrian">
        <walk from="E7" to="E21"/>
    </person>
    <person id="ped223" depart="890.66" type="ped_pedestrian">
        <walk from="E3" to="E2"/>
    </person>
    <person id="ped224" depart="894.65" type="ped_pedestrian">
        <walk from="E5" to="E20"/>
    </person>
    <person id="ped225" depart="898.64" type="ped_pedestrian">
        <walk from="E7" to="E3"/>
    </person>
    <person id="ped226" depart="902.64" type="ped_pedestrian">
        <walk from="E19" to="E14"/>
    </person>
    <person id="ped227" depart="906.63" type="ped_pedestrian">
        <walk from="E13" to="E22"/>
    </person>
    <person id="ped228" depart="910.63" type="ped_pedestrian">
        <walk from="E4" to="E2"/>
    </person>
    <person id="ped229" depart="914.62" type="ped_pedestrian">
        <walk from="E22" to="E14"/>
    </person>
    <person id="ped230" depart="918.61" type="ped_pedestrian">
        <walk from="E1" to="E14"/>
    </person>
    <person id="ped231" depart="922.61" type="ped_pedestrian">
        <walk from="E14" to="E15"/>
    </person>
    <person id="ped232" depart="926.60" type="ped_pedestrian">
        <walk from="E2" to="E11"/>
    </person>
    <person id="ped233" depart="930.60" type="ped_pedestrian">
        <walk from="E13" to="E23"/>
    </person>
    <person id="ped234" depart="934.59" type="ped_pedestrian">
        <walk from="E23" to="E1"/>
    </person>
    <person id="ped235" depart="938.58" type="ped_pedestrian">
        <walk from="E17" to="E20"/>
    </person>
    <person id="ped236" depart="942.58" type="ped_pedestrian">
        <walk from="E17" to="E12"/>
    </person>
    <person id="ped237" depart="946.57" type="ped_pedestrian">
        <walk from="E18" to="E7"/>
    </person>
    <person id="ped238" depart="950.57" type="ped_pedestrian">
        <walk from="E21" to="E23"/>
    </person>
    <person id="ped239" depart="954.56" type="ped_pedestrian">
        <walk from="E6" to="E4"/>
    </person>
    <person id="ped240" depart="958.55" type="ped_pedestrian">
        <walk from="E17" to="E0"/>
    </person>
    <person id="ped241" depart="962.55" type="ped_pedestrian">
        <walk from="E16" to="E4"/>
    </person>
    <person id="ped242" depart="966.54" type="ped_pedestrian">
        <walk from="E6" to="E8"/>
    </person>
    <person id="ped243" depart="970.54" type="ped_pedestrian">
        <walk from="E18" to="E3"/>
    </person>
    <person id="ped244" depart="974.53" type="ped_pedestrian">
        <walk from="E20" to="E21"/>
    </person>
    <person id="ped245" depart="978.52" type="ped_pedestrian">
        <walk from="E13" to="E13"/>
    </person>
    <person id="ped246" depart="982.52" type="ped_pedestrian">
        <walk from="E18" to="E0"/>
    </person>
    <person id="ped247" depart="986.51" type="ped_pedestrian">
        <walk from="E16" to="E23"/>
    </person>
    <person id="ped248" depart="990.51" type="ped_pedestrian">
        <walk from="E17" to="E11"/>
    </person>
    <person id="ped249" depart="994.50" type="ped_pedestrian">
        <walk from="E19" to="E11"/>
    </person>
    <person id="ped250" depart="998.49" type="ped_pedestrian">
        <walk from="E21" to="E0"/>
    </person>
    <person id="ped251" depart="1002.49" type="ped_pedestrian">
        <walk from="E17" to="E20"/>
    </person>
    <person id="ped252" depart="1006.48" type="ped_pedestrian">
        <walk from="E0" to="E22"/>
    </person>
    <person id="ped253" depart="1010.48" type="ped_pedestrian">
        <walk from="E11" to="E19"/>
    </person>
    <person id="ped254" depart="1014.47" type="ped_pedestrian">
        <walk from="E1" to="E17"/>
    </person>
    <person id="ped255" depart="1018.46" type="ped_pedestrian">
        <walk from="E13" to="E15"/>
    </person>
    <person id="ped256" depart="1022.46" type="ped_pedestrian">
        <walk from="E4" to="E17"/>
    </person>
    <person id="ped257" depart="1026.45" type="ped_pedestrian">
        <walk from="E4" to="E5"/>
    </person>
    <person id="ped258" depart="1030.45" type="ped_pedestrian">
        <walk from="E14" to="E1"/>
    </person>
    <person id="ped259" depart="1034.44" type="ped_pedestrian">
        <walk from="E0" to="E2"/>
    </person>
    <person id="ped260" depart="1038.43" type="ped_pedestrian">
        <walk from="E9" to="E16"/>
    </person>
    <person id="ped261" depart="1042.43" type="ped_pedestrian">
        <walk from="E22" to="E4"/>
    </person>