<?xml version="1.0" encoding="UTF-8"?>

<!-- generated on 2025-07-12 21:49:10.851959 by randomTrips.py v1_23_1+0000-676720d13f6
<configuration>
    <net-file value="osm.net.xml.gz"/>
    <output-trip-file value="osm.pedestrian.trips.xml"/>
    <route-file value="osm.pedestrian.rou.xml"/>
    <pedestrians value="True"/>
    <prefix value="ped"/>
    <vehicle-class value="pedestrian"/>
    <fringe-factor value="1"/>
    <max-distance value="2000.0"/>
    <insertion-density value="100.0"/>
</configuration>
-->

<!-- generated on 2025-07-12 21:49:10 by Eclipse SUMO duarouter Version 1.23.1
<duarouterConfiguration xmlns:xsi="http://www.w3.org/2001/XMLSchema-instance" xsi:noNamespaceSchemaLocation="http://sumo.dlr.de/xsd/duarouterConfiguration.xsd">

    <input>
        <net-file value="osm.net.xml.gz"/>
        <route-files value="osm.pedestrian.trips.xml"/>
    </input>

    <output>
        <output-file value="osm.pedestrian.rou.xml"/>
        <alternatives-output value="NUL"/>
    </output>

    <time>
        <begin value="0.0"/>
        <end value="3600.0"/>
    </time>

    <report>
        <no-warnings value="true"/>
        <ignore-errors value="true"/>
        <no-step-log value="true"/>
    </report>

</duarouterConfiguration>
-->

<routes xmlns:xsi="http://www.w3.org/2001/XMLSchema-instance" xsi:noNamespaceSchemaLocation="http://sumo.dlr.de/xsd/routes_file.xsd">
    <vType id="ped_pedestrian" vClass="pedestrian"/>
    <person id="ped0" type="ped_pedestrian" depart="0.00">
        <walk edges="E22 E2 E0"/>
    </person>
    <person id="ped1" type="ped_pedestrian" depart="4.04">
        <walk edges="E14 E13"/>
    </person>
    <person id="ped2" type="ped_pedestrian" depart="8.07">
        <walk edges="E3 E23"/>
    </person>
    <person id="ped3" type="ped_pedestrian" depart="12.11">
        <walk edges="E7 E5 E10"/>
    </person>
    <person id="ped4" type="ped_pedestrian" depart="16.14">
        <walk edges="E18 E0"/>
    </person>
    <person id="ped5" type="ped_pedestrian" depart="20.18">
        <walk edges="E13 E7 E2"/>
    </person>
    <person id="ped6" type="ped_pedestrian" depart="24.22">
        <walk edges="E0 E7 E12"/>
    </person>
    <person id="ped7" type="ped_pedestrian" depart="28.25">
        <walk edges="E22 E20"/>
    </person>
    <person id="ped8" type="ped_pedestrian" depart="32.29">
        <walk edges="E13 E7 E2 E21"/>
    </person>
    <person id="ped9" type="ped_pedestrian" depart="36.32">
        <walk edges="E5 E0"/>
    </person>
    <person id="ped10" type="ped_pedestrian" depart="40.36">
        <walk edges="E5 E2 E23"/>
    </person>
    <person id="ped11" type="ped_pedestrian" depart="44.39">
        <walk edges="E16 E11"/>
    </person>
    <person id="ped12" type="ped_pedestrian" depart="48.43">
        <walk edges="E8 E0 E5 E16"/>
    </person>
    <person id="ped13" type="ped_pedestrian" depart="52.47">
        <walk edges="E10"/>
    </person>
    <person id="ped14" type="ped_pedestrian" depart="56.50">
        <walk edges="E6 E2 E21"/>
    </person>
    <person id="ped15" type="ped_pedestrian" depart="60.54">
        <walk edges="E5 E2 E3"/>
    </person>
    <person id="ped16" type="ped_pedestrian" depart="64.57">
        <walk edges="E2 E0 E9"/>
    </person>
    <person id="ped17" type="ped_pedestrian" depart="68.61">
        <walk edges="E17 E5 E2 E20"/>
    </person>
    <person id="ped18" type="ped_pedestrian" depart="72.65">
        <walk edges="E5 E2 E21"/>
    </person>
    <person id="ped19" type="ped_pedestrian" depart="76.68">
        <walk edges="E6 E2 E20"/>
    </person>
    <person id="ped20" type="ped_pedestrian" depart="80.72">
        <walk edges="E23 E2 E1"/>
    </person>
    <person id="ped21" type="ped_pedestrian" depart="84.75">
        <walk edges="E13 E14"/>
    </person>
    <person id="ped22" type="ped_pedestrian" depart="88.79">
        <walk edges="E1 E7 E13"/>
    </person>
    <person id="ped23" type="ped_pedestrian" depart="92.82">
        <walk edges="E10 E5 E7 E14"/>
    </person>
    <person id="ped24" type="ped_pedestrian" depart="96.86">
        <walk edges="E22 E2 E5 E16"/>
    </person>
    <person id="ped25" type="ped_pedestrian" depart="100.90">
        <walk edges="E16 E5 E7 E13"/>
    </person>
    <person id="ped26" type="ped_pedestrian" depart="104.93">
        <walk edges="E14 E7 E0 E8"/>
    </person>
    <person id="ped27" type="ped_pedestrian" depart="108.97">
        <walk edges="E22 E21"/>
    </person>
    <person id="ped28" type="ped_pedestrian" depart="113.00">
        <walk edges="E12 E7 E2 E3"/>
    </person>
    <person id="ped29" type="ped_pedestrian" depart="117.04">
        <walk edges="E11 E17"/>
    </person>
    <person id="ped30" type="ped_pedestrian" depart="121.08">
        <walk edges="E9 E0 E2 E22"/>
    </person>
    <person id="ped31" type="ped_pedestrian" depart="125.11">
        <walk edges="E20 E23"/>
    </person>
    <person id="ped32" type="ped_pedestrian" depart="129.15">
        <walk edges="E6 E4"/>
    </person>
    <person id="ped33" type="ped_pedestrian" depart="133.18">
        <walk edges="E13 E7 E0"/>
    </person>
    <person id="ped34" type="ped_pedestrian" depart="137.22">
        <walk edges="E15 E0 E7 E14"/>
    </person>
    <person id="ped35" type="ped_pedestrian" depart="141.25">
        <walk edges="E13 E7 E0 E8"/>
    </person>
    <person id="ped36" type="ped_pedestrian" depart="145.29">
        <walk edges="E7 E0 E15"/>
    </person>
    <person id="ped37" type="ped_pedestrian" depart="149.33">
        <walk edges="E22 E2 E5 E17"/>
    </person>
    <person id="ped38" type="ped_pedestrian" depart="153.36">
        <walk edges="E7 E19"/>
    </person>
    <person id="ped39" type="ped_pedestrian" depart="157.40">
        <walk edges="E14 E13"/>
    </person>
    <person id="ped40" type="ped_pedestrian" depart="161.43">
        <walk edges="E20 E2 E7 E14"/>
    </person>
    <person id="ped41" type="ped_pedestrian" depart="165.47">
        <walk edges="E21 E2 E7"/>
    </person>
    <person id="ped42" type="ped_pedestrian" depart="169.51">
        <walk edges="E17 E5 E7 E13"/>
    </person>
    <person id="ped43" type="ped_pedestrian" depart="173.54">
        <walk edges="E9 E0 E2"/>
    </person>
    <person id="ped44" type="ped_pedestrian" depart="177.58">
        <walk edges="E10 E5 E1"/>
    </person>
    <person id="ped45" type="ped_pedestrian" depart="181.61">
        <walk edges="E10 E5 E2 E22"/>
    </person>
    <person id="ped46" type="ped_pedestrian" depart="185.65">
        <walk edges="E5 E0 E18"/>
    </person>
    <person id="ped47" type="ped_pedestrian" depart="189.68">
        <walk edges="E1 E5 E17"/>
    </person>
    <person id="ped48" type="ped_pedestrian" depart="193.72">
        <walk edges="E9 E0 E2"/>
    </person>
    <person id="ped49" type="ped_pedestrian" depart="197.76">
        <walk edges="E9 E0 E6"/>
    </person>
    <person id="ped50" type="ped_pedestrian" depart="201.79">
        <walk edges="E0 E2 E3"/>
    </person>
    <person id="ped51" type="ped_pedestrian" depart="205.83">
        <walk edges="E23 E2"/>
    </person>
    <person id="ped52" type="ped_pedestrian" depart="209.86">
        <walk edges="E14 E7 E2 E22"/>
    </person>
    <person id="ped53" type="ped_pedestrian" depart="213.90">
        <walk edges="E10 E5 E0 E18"/>
    </person>
    <person id="ped54" type="ped_pedestrian" depart="217.94">
        <walk edges="E18 E8"/>
    </person>
    <person id="ped55" type="ped_pedestrian" depart="221.97">
        <walk edges="E7 E14"/>
    </person>
    <person id="ped56" type="ped_pedestrian" depart="226.01">
        <walk edges="E2 E7 E12"/>
    </person>
    <person id="ped57" type="ped_pedestrian" depart="230.04">
        <walk edges="E7 E6"/>
    </person>
    <person id="ped58" type="ped_pedestrian" depart="234.08">
        <walk edges="E15 E0 E2 E22"/>
    </person>
    <person id="ped59" type="ped_pedestrian" depart="238.11">
        <walk edges="E21 E2 E5 E11"/>
    </person>
    <person id="ped60" type="ped_pedestrian" depart="242.15">
        <walk edges="E4 E2"/>
    </person>
    <person id="ped61" type="ped_pedestrian" depart="246.19">
        <walk edges="E4 E2"/>
    </person>
    <person id="ped62" type="ped_pedestrian" depart="250.22">
        <walk edges="E0 E15"/>
    </person>
    <person id="ped63" type="ped_pedestrian" depart="254.26">
        <walk edges="E0 E8"/>
    </person>
    <person id="ped64" type="ped_pedestrian" depart="258.29">
        <walk edges="E7 E5"/>
    </person>
    <person id="ped65" type="ped_pedestrian" depart="262.33">
        <walk edges="E15 E0 E1"/>
    </person>
    <person id="ped66" type="ped_pedestrian" depart="266.37">
        <walk edges="E7 E0 E8"/>
    </person>
    <person id="ped67" type="ped_pedestrian" depart="270.40">
        <walk edges="E10 E5 E7 E19"/>
    </person>
    <person id="ped68" type="ped_pedestrian" depart="274.44">
        <walk edges="E1 E4"/>
    </person>
    <person id="ped69" type="ped_pedestrian" depart="278.47">
        <walk edges="E4 E5 E11"/>
    </person>
    <person id="ped70" type="ped_pedestrian" depart="282.51">
        <walk edges="E19 E7 E2 E20"/>
    </person>
    <person id="ped71" type="ped_pedestrian" depart="286.54">
        <walk edges="E14 E7 E6"/>
    </person>
    <person id="ped72" type="ped_pedestrian" depart="290.58">
        <walk edges="E18 E0 E7 E13"/>
    </person>
    <person id="ped73" type="ped_pedestrian" depart="294.62">
        <walk edges="E2 E3"/>
    </person>
    <person id="ped74" type="ped_pedestrian" depart="298.65">
        <walk edges="E12 E7 E0 E15"/>
    </person>
    <person id="ped75" type="ped_pedestrian" depart="302.69">
        <walk edges="E9 E0 E2 E22"/>
    </person>
    <person id="ped76" type="ped_pedestrian" depart="306.72">
        <walk edges="E18 E0 E2"/>
    </person>
    <person id="ped77" type="ped_pedestrian" depart="310.76">
        <walk edges="E10 E5 E7 E13"/>
    </person>
    <person id="ped78" type="ped_pedestrian" depart="314.80">
        <walk edges="E16 E5 E2 E21"/>
    </person>
    <person id="ped79" type="ped_pedestrian" depart="318.83">
        <walk edges="E13"/>
    </person>
    <person id="ped80" type="ped_pedestrian" depart="322.87">
        <walk edges="E1 E2 E22"/>
    </person>
    <person id="ped81" type="ped_pedestrian" depart="326.90">
        <walk edges="E13 E7"/>
    </person>
    <person id="ped82" type="ped_pedestrian" depart="330.94">
        <walk edges="E6 E1"/>
    </person>
    <person id="ped83" type="ped_pedestrian" depart="334.97">
        <walk edges="E13 E7 E2 E23"/>
    </person>
    <person id="ped84" type="ped_pedestrian" depart="339.01">
        <walk edges="E13 E7 E5 E11"/>
    </person>
    <person id="ped85" type="ped_pedestrian" depart="343.05">
        <walk edges="E8 E0 E2 E20"/>
    </person>
    <person id="ped86" type="ped_pedestrian" depart="347.08">
        <walk edges="E19 E7 E4"/>
    </person>
    <person id="ped87" type="ped_pedestrian" depart="351.12">
        <walk edges="E5 E7 E12"/>
    </person>
    <person id="ped88" type="ped_pedestrian" depart="355.15">
        <walk edges="E10 E5 E0 E18"/>
    </person>
    <person id="ped89" type="ped_pedestrian" depart="359.19">
        <walk edges="E18 E0 E7 E19"/>
    </person>
    <person id="ped90" type="ped_pedestrian" depart="363.23">
        <walk edges="E3 E23"/>
    </person>
    <person id="ped91" type="ped_pedestrian" depart="367.26">
        <walk edges="E9 E0 E5 E10"/>
    </person>
    <person id="ped92" type="ped_pedestrian" depart="371.30">
        <walk edges="E17 E16"/>
    </person>
    <person id="ped93" type="ped_pedestrian" depart="375.33">
        <walk edges="E6 E7 E13"/>
    </person>
    <person id="ped94" type="ped_pedestrian" depart="379.37">
        <walk edges="E12 E7 E0 E18"/>
    </person>
    <person id="ped95" type="ped_pedestrian" depart="383.41">
        <walk edges="E18 E0 E7 E14"/>
    </person>
    <person id="ped96" type="ped_pedestrian" depart="387.44">
        <walk edges="E13 E7 E0 E8"/>
    </person>
    <person id="ped97" type="ped_pedestrian" depart="391.48">
        <walk edges="E18 E0 E6"/>
    </person>
    <person id="ped98" type="ped_pedestrian" depart="395.51">
        <walk edges="E20 E2 E1"/>
    </person>
    <person id="ped99" type="ped_pedestrian" depart="399.55">
        <walk edges="E9 E0 E6"/>
    </person>
    <person id="ped100" type="ped_pedestrian" depart="403.58">
        <walk edges="E9 E8"/>
    </person>
    <person id="ped101" type="ped_pedestrian" depart="407.62">
        <walk edges="E6 E5 E11"/>
    </person>
    <person id="ped102" type="ped_pedestrian" depart="411.66">
        <walk edges="E19 E13"/>
    </person>
    <person id="ped103" type="ped_pedestrian" depart="415.69">
        <walk edges="E17 E5 E1"/>
    </person>
    <person id="ped104" type="ped_pedestrian" depart="419.73">
        <walk edges="E17 E5 E0 E9"/>
    </person>
    <person id="ped105" type="ped_pedestrian" depart="423.76">
        <walk edges="E14 E7 E4"/>
    </person>
    <person id="ped106" type="ped_pedestrian" depart="427.80">
        <walk edges="E18"/>
    </person>
    <person id="ped107" type="ped_pedestrian" depart="431.84">
        <walk edges="E8 E9"/>
    </person>
    <person id="ped108" type="ped_pedestrian" depart="435.87">
        <walk edges="E20 E3"/>
    </person>
    <person id="ped109" type="ped_pedestrian" depart="439.91">
        <walk edges="E11 E5 E0 E15"/>
    </person>
    <person id="ped110" type="ped_pedestrian" depart="443.94">
        <walk edges="E9 E0 E2 E20"/>
    </person>
    <person id="ped111" type="ped_pedestrian" depart="447.98">
        <walk edges="E20 E3"/>
    </person>
    <person id="ped112" type="ped_pedestrian" depart="452.01">
        <walk edges="E1 E2 E21"/>
    </person>
    <person id="ped113" type="ped_pedestrian" depart="456.05">
        <walk edges="E2 E6"/>
    </person>
    <person id="ped114" type="ped_pedestrian" depart="460.09">
        <walk edges="E11 E5 E0 E9"/>
    </person>
    <person id="ped115" type="ped_pedestrian" depart="464.12">
        <walk edges="E1 E7 E12"/>
    </person>
    <person id="ped116" type="ped_pedestrian" depart="468.16">
        <walk edges="E21 E23"/>
    </person>
    <person id="ped117" type="ped_pedestrian" depart="472.19">
        <walk edges="E13 E7 E5 E10"/>
    </person>
    <person id="ped118" type="ped_pedestrian" depart="476.23">
        <walk edges="E7 E13"/>
    </person>
    <person id="ped119" type="ped_pedestrian" depart="480.27">
        <walk edges="E21"/>
    </person>
    <person id="ped120" type="ped_pedestrian" depart="484.30">
        <walk edges="E18 E0 E2 E21"/>
    </person>
    <person id="ped121" type="ped_pedestrian" depart="488.34">
        <walk edges="E2 E0 E8"/>
    </person>
    <person id="ped122" type="ped_pedestrian" depart="492.37">
        <walk edges="E12 E7 E2 E3"/>
    </person>
    <person id="ped123" type="ped_pedestrian" depart="496.41">
        <walk edges="E13 E7 E5 E17"/>
    </person>
    <person id="ped124" type="ped_pedestrian" depart="500.44">
        <walk edges="E23 E2 E0 E15"/>
    </person>
    <person id="ped125" type="ped_pedestrian" depart="504.48">
        <walk edges="E15 E0 E4"/>
    </person>
    <person id="ped126" type="ped_pedestrian" depart="508.52">
        <walk edges="E1 E0 E18"/>
    </person>
    <person id="ped127" type="ped_pedestrian" depart="512.55">
        <walk edges="E9"/>
    </person>
    <person id="ped128" type="ped_pedestrian" depart="516.59">
        <walk edges="E1 E7 E13"/>
    </person>
    <person id="ped129" type="ped_pedestrian" depart="520.62">
        <walk edges="E14 E7 E0 E8"/>
    </person>
    <person id="ped130" type="ped_pedestrian" depart="524.66">
        <walk edges="E7"/>
    </person>
    <person id="ped131" type="ped_pedestrian" depart="528.70">
        <walk edges="E16 E11"/>
    </person>
    <person id="ped132" type="ped_pedestrian" depart="532.73">
        <walk edges="E6 E2 E23"/>
    </person>
    <person id="ped133" type="ped_pedestrian" depart="536.77">
        <walk edges="E21 E2 E0 E9"/>
    </person>
    <person id="ped134" type="ped_pedestrian" depart="540.80">
        <walk edges="E22 E2 E0"/>
    </person>
    <person id="ped135" type="ped_pedestrian" depart="544.84">
        <walk edges="E5 E0 E15"/>
    </person>
    <person id="ped136" type="ped_pedestrian" depart="548.87">
        <walk edges="E22 E2 E0 E8"/>
    </person>
    <person id="ped137" type="ped_pedestrian" depart="552.91">
        <walk edges="E11 E10"/>
    </person>
    <person id="ped138" type="ped_pedestrian" depart="556.95">
        <walk edges="E10 E5 E2 E20"/>
    </person>
    <person id="ped139" type="ped_pedestrian" depart="560.98">
        <walk edges="E14 E7 E2 E21"/>
    </person>
    <person id="ped140" type="ped_pedestrian" depart="565.02">
        <walk edges="E3 E2 E7 E12"/>
    </person>
    <person id="ped141" type="ped_pedestrian" depart="569.05">
        <walk edges="E22 E2 E7 E14"/>
    </person>
    <person id="ped142" type="ped_pedestrian" depart="573.09">
        <walk edges="E19 E7"/>
    </person>
    <person id="ped143" type="ped_pedestrian" depart="577.13">
        <walk edges="E6 E5 E10"/>
    </person>
    <person id="ped144" type="ped_pedestrian" depart="581.16">
        <walk edges="E18 E0 E7 E14"/>
    </person>
    <person id="ped145" type="ped_pedestrian" depart="585.20">
        <walk edges="E0 E4"/>
    </person>
    <person id="ped146" type="ped_pedestrian" depart="589.23">
        <walk edges="E22 E2 E7 E14"/>
    </person>
    <person id="ped147" type="ped_pedestrian" depart="593.27">
        <walk edges="E3 E20"/>
    </person>
    <person id="ped148" type="ped_pedestrian" depart="597.30">
        <walk edges="E18 E0"/>
    </person>
    <person id="ped149" type="ped_pedestrian" depart="601.34">
        <walk edges="E1 E7"/>
    </person>
    <person id="ped150" type="ped_pedestrian" depart="605.38">
        <walk edges="E7 E2 E20"/>
    </person>
    <person id="ped151" type="ped_pedestrian" depart="609.41">
        <walk edges="E6 E2 E20"/>
    </person>
    <person id="ped152" type="ped_pedestrian" depart="613.45">
        <walk edges="E11"/>
    </person>
    <person id="ped153" type="ped_pedestrian" depart="617.48">
        <walk edges="E15 E0 E7"/>
    </person>
    <person id="ped154" type="ped_pedestrian" depart="621.52">
        <walk edges="E5 E6"/>
    </person>
    <person id="ped155" type="ped_pedestrian" depart="625.56">
        <walk edges="E7 E13"/>
    </person>
    <person id="ped156" type="ped_pedestrian" depart="629.59">
        <walk edges="E13 E7 E5 E10"/>
    </person>
    <person id="ped157" type="ped_pedestrian" depart="633.63">
        <walk edges="E4 E7"/>
    </person>
    <person id="ped158" type="ped_pedestrian" depart="637.66">
        <walk edges="E17 E5 E2 E21"/>
    </person>
    <person id="ped159" type="ped_pedestrian" depart="641.70">
        <walk edges="E11 E5 E0 E8"/>
    </person>
    <person id="ped160" type="ped_pedestrian" depart="645.73">
        <walk edges="E6 E0 E9"/>
    </person>
    <person id="ped161" type="ped_pedestrian" depart="649.77">
        <walk edges="E5 E7"/>
    </person>
    <person id="ped162" type="ped_pedestrian" depart="653.81">
        <walk edges="E0 E2 E3"/>
    </person>
    <person id="ped163" type="ped_pedestrian" depart="657.84">
        <walk edges="E15 E8"/>
    </person>
    <person id="ped164" type="ped_pedestrian" depart="661.88">
        <walk edges="E5 E6"/>
    </person>
    <person id="ped165" type="ped_pedestrian" depart="665.91">
        <walk edges="E5 E7 E14"/>
    </person>
    <person id="ped166" type="ped_pedestrian" depart="669.95">
        <walk edges="E4 E5 E10"/>
    </person>
    <person id="ped167" type="ped_pedestrian" depart="673.99">
        <walk edges="E6"/>
    </person>
    <person id="ped168" type="ped_pedestrian" depart="678.02">
        <walk edges="E13 E7 E5"/>
    </person>
    <person id="ped169" type="ped_pedestrian" depart="682.06">
        <walk edges="E19 E7 E0 E15"/>
    </person>
    <person id="ped170" type="ped_pedestrian" depart="686.09">
        <walk edges="E5 E7 E13"/>
    </person>
    <person id="ped171" type="ped_pedestrian" depart="690.13">
        <walk edges="E0 E7 E12"/>
    </person>
    <person id="ped172" type="ped_pedestrian" depart="694.16">
        <walk edges="E15 E0 E6"/>
    </person>
    <person id="ped173" type="ped_pedestrian" depart="698.20">
        <walk edges="E9 E0 E7 E14"/>
    </person>
    <person id="ped174" type="ped_pedestrian" depart="702.24">
        <walk edges="E22 E2 E5 E17"/>
    </person>
    <person id="ped175" type="ped_pedestrian" depart="706.27">
        <walk edges="E9 E0 E2"/>
    </person>
    <person id="ped176" type="ped_pedestrian" depart="710.31">
        <walk edges="E8 E0 E5 E10"/>
    </person>
    <person id="ped177" type="ped_pedestrian" depart="714.34">
        <walk edges="E9 E0 E7 E12"/>
    </person>
    <person id="ped178" type="ped_pedestrian" depart="718.38">
        <walk edges="E9 E0 E7 E14"/>
    </person>
    <person id="ped179" type="ped_pedestrian" depart="722.42">
        <walk edges="E10 E5 E0 E18"/>
    </person>
    <person id="ped180" type="ped_pedestrian" depart="726.45">
        <walk edges="E3 E2 E0 E15"/>
    </person>
    <person id="ped181" type="ped_pedestrian" depart="730.49">
        <walk edges="E21 E2"/>
    </person>
    <person id="ped182" type="ped_pedestrian" depart="734.52">
        <walk edges="E17 E5 E2 E20"/>
    </person>
    <person id="ped183" type="ped_pedestrian" depart="738.56">
        <walk edges="E14 E7 E2 E3"/>
    </person>
    <person id="ped184" type="ped_pedestrian" depart="742.60">
        <walk edges="E0 E8"/>
    </person>
    <person id="ped185" type="ped_pedestrian" depart="746.63">
        <walk edges="E2 E3"/>
    </person>
    <person id="ped186" type="ped_pedestrian" depart="750.67">
        <walk edges="E3 E23"/>
    </person>
    <person id="ped187" type="ped_pedestrian" depart="754.70">
        <walk edges="E16 E5 E1"/>
    </person>
    <person id="ped188" type="ped_pedestrian" depart="758.74">
        <walk edges="E22 E2 E0 E15"/>
    </person>
    <person id="ped189" type="ped_pedestrian" depart="762.77">
        <walk edges="E15 E0 E6"/>
    </person>
    <person id="ped190" type="ped_pedestrian" depart="766.81">
        <walk edges="E3 E2 E0 E15"/>
    </person>
    <person id="ped191" type="ped_pedestrian" depart="770.85">
        <walk edges="E15 E0 E5 E17"/>
    </person>
    <person id="ped192" type="ped_pedestrian" depart="774.88">
        <walk edges="E17 E5 E0 E15"/>
    </person>
    <person id="ped193" type="ped_pedestrian" depart="778.92">
        <walk edges="E11 E5 E0 E18"/>
    </person>
    <person id="ped194" type="ped_pedestrian" depart="782.95">
        <walk edges="E8 E0 E2 E23"/>
    </person>
    <person id="ped195" type="ped_pedestrian" depart="786.99">
        <walk edges="E7 E2 E21"/>
    </person>
    <person id="ped196" type="ped_pedestrian" depart="791.03">
        <walk edges="E15 E0 E2 E20"/>
    </person>
    <person id="ped197" type="ped_pedestrian" depart="795.06">
        <walk edges="E0 E7 E14"/>
    </person>
    <person id="ped198" type="ped_pedestrian" depart="799.10">
        <walk edges="E18 E0 E2 E20"/>
    </person>
    <person id="ped199" type="ped_pedestrian" depart="803.13">
        <walk edges="E22 E2 E7 E19"/>
    </person>
    <person id="ped200" type="ped_pedestrian" depart="807.17">
        <walk edges="E18 E0 E7 E13"/>
    </person>
    <person id="ped201" type="ped_pedestrian" depart="811.20">
        <walk edges="E19 E7"/>
    </person>
    <person id="ped202" type="ped_pedestrian" depart="815.24">
        <walk edges="E5 E7 E12"/>
    </person>
    <person id="ped203" type="ped_pedestrian" depart="819.28">
        <walk edges="E10 E5 E2"/>
    </person>
    <person id="ped204" type="ped_pedestrian" depart="823.31">
        <walk edges="E22 E2 E5 E16"/>
    </person>
    <person id="ped205" type="ped_pedestrian" depart="827.35">
        <walk edges="E5 E4"/>
    </person>
    <person id="ped206" type="ped_pedestrian" depart="831.38">
        <walk edges="E23 E2 E7 E13"/>
    </person>
    <person id="ped207" type="ped_pedestrian" depart="835.42">
        <walk edges="E12 E7 E0"/>
    </person>
    <person id="ped208" type="ped_pedestrian" depart="839.46">
        <walk edges="E13 E19"/>
    </person>
    <person id="ped209" type="ped_pedestrian" depart="843.49">
        <walk edges="E6 E1"/>
    </person>
    <person id="ped210" type="ped_pedestrian" depart="847.53">
        <walk edges="E17 E5 E2 E22"/>
    </person>
    <person id="ped211" type="ped_pedestrian" depart="851.56">
        <walk edges="E12 E7 E2 E23"/>
    </person>
    <person id="ped212" type="ped_pedestrian" depart="855.60">
        <walk edges="E19 E13"/>
    </person>
    <person id="ped213" type="ped_pedestrian" depart="859.63">
        <walk edges="E22 E2 E0"/>
    </person>
    <person id="ped214" type="ped_pedestrian" depart="863.67">
        <walk edges="E4"/>
    </person>
    <person id="ped215" type="ped_pedestrian" depart="867.71">
        <walk edges="E10 E5 E0 E18"/>
    </person>
    <person id="ped216" type="ped_pedestrian" depart="871.74">
        <walk edges="E12 E7 E0 E8"/>
    </person>
    <person id="ped217" type="ped_pedestrian" depart="875.78">
        <walk edges="E2 E1"/>
    </person>
    <person id="ped218" type="ped_pedestrian" depart="879.81">
        <walk edges="E13 E7 E6"/>
    </person>
    <person id="ped219" type="ped_pedestrian" depart="883.85">
        <walk edges="E18 E0 E5"/>
    </person>
    <person id="ped220" type="ped_pedestrian" depart="887.89">
        <walk edges="E23 E2 E0 E9"/>
    </person>
    <person id="ped221" type="ped_pedestrian" depart="891.92">
        <walk edges="E21 E2 E0 E8"/>
    </person>
    <person id="ped222" type="ped_pedestrian" depart="895.96">
        <walk edges="E7 E2 E21"/>
    </person>
    <person id="ped223" type="ped_pedestrian" depart="899.99">
        <walk edges="E3 E2"/>
    </person>
    <person id="ped224" type="ped_pedestrian" depart="904.03">
        <walk edges="E5 E2 E20"/>
    </person>
    <person id="ped225" type="ped_pedestrian" depart="908.06">
        <walk edges="E7 E2 E3"/>
    </person>
    <person id="ped226" type="ped_pedestrian" depart="912.10">
        <walk edges="E19 E14"/>
    </person>
    <person id="ped227" type="ped_pedestrian" depart="916.14">
        <walk edges="E13 E7 E2 E22"/>
    </person>
    <person id="ped228" type="ped_pedestrian" depart="920.17">
        <walk edges="E4 E2"/>
    </person>
    <person id="ped229" type="ped_pedestrian" depart="924.21">
        <walk edges="E22 E2 E7 E14"/>
    </person>
    <person id="ped230" type="ped_pedestrian" depart="928.24">
        <walk edges="E1 E7 E14"/>
    </person>
    <person id="ped231" type="ped_pedestrian" depart="932.28">
        <walk edges="E14 E7 E0 E15"/>
    </person>
    <person id="ped232" type="ped_pedestrian" depart="936.32">
        <walk edges="E2 E5 E11"/>
    </person>
    <person id="ped233" type="ped_pedestrian" depart="940.35">
        <walk edges="E13 E7 E2 E23"/>
    </person>
    <person id="ped234" type="ped_pedestrian" depart="944.39">
        <walk edges="E23 E2 E1"/>
    </person>
    <person id="ped235" type="ped_pedestrian" depart="948.42">
        <walk edges="E17 E5 E2 E20"/>
    </person>
    <person id="ped236" type="ped_pedestrian" depart="952.46">
        <walk edges="E17 E5 E7 E12"/>
    </person>
    <person id="ped237" type="ped_pedestrian" depart="956.49">
        <walk edges="E18 E0 E7"/>
    </person>
    <person id="ped238" type="ped_pedestrian" depart="960.53">
        <walk edges="E21 E23"/>
    </person>
    <person id="ped239" type="ped_pedestrian" depart="964.57">
        <walk edges="E6 E4"/>
    </person>
    <person id="ped240" type="ped_pedestrian" depart="968.60">
        <walk edges="E17 E5 E0"/>
    </person>
    <person id="ped241" type="ped_pedestrian" depart="972.64">
        <walk edges="E16 E5 E4"/>
    </person>
    <person id="ped242" type="ped_pedestrian" depart="976.67">
        <walk edges="E6 E0 E8"/>
    </person>
    <person id="ped243" type="ped_pedestrian" depart="980.71">
        <walk edges="E18 E0 E2 E3"/>
    </person>
    <person id="ped244" type="ped_pedestrian" depart="984.75">
        <walk edges="E20 E21"/>
    </person>
    <person id="ped245" type="ped_pedestrian" depart="988.78">
        <walk edges="E13"/>
    </person>
    <person id="ped246" type="ped_pedestrian" depart="992.82">
        <walk edges="E18 E0"/>
    </person>
    <person id="ped247" type="ped_pedestrian" depart="996.85">
        <walk edges="E16 E5 E2 E23"/>
    </person>
    <person id="ped248" type="ped_pedestrian" depart="1000.89">
        <walk edges="E17 E11"/>
    </person>
    <person id="ped249" type="ped_pedestrian" depart="1004.92">
        <walk edges="E19 E7 E5 E11"/>
    </person>
    <person id="ped250" type="ped_pedestrian" depart="1008.96">
        <walk edges="E21 E2 E0"/>
    </person>
    <person id="ped251" type="ped_pedestrian" depart="1013.00">
        <walk edges="E17 E5 E2 E20"/>
    </person>
    <person id="ped252" type="ped_pedestrian" depart="1017.03">
        <walk edges="E0 E2 E22"/>
    </person>
    <person id="ped253" type="ped_pedestrian" depart="1021.07">
        <walk edges="E11 E5 E7 E19"/>
    </person>
    <person id="ped254" type="ped_pedestrian" depart="1025.10">
        <walk edges="E1 E5 E17"/>
    </person>
    <person id="ped255" type="ped_pedestrian" depart="1029.14">
        <walk edges="E13 E7 E0 E15"/>
    </person>
    <person id="ped256" type="ped_pedestrian" depart="1033.18">
        <walk edges="E4 E5 E17"/>
    </person>
    <person id="ped257" type="ped_pedestrian" depart="1037.21">