<?xml version="1.0" encoding="UTF-8"?>

<!-- generated on 2025-07-01 15:12:12.420702 by randomTrips.py v1_23_1+0000-676720d13f6
<configuration>
    <net-file value="osm.net.xml.gz"/>
    <output-trip-file value="osm.pedestrian.trips.xml"/>
    <route-file value="osm.pedestrian.rou.xml"/>
    <pedestrians value="True"/>
    <prefix value="ped"/>
    <vehicle-class value="pedestrian"/>
    <fringe-factor value="1"/>
    <max-distance value="2000.0"/>
    <insertion-density value="100.0"/>
</configuration>
-->

<!-- generated on 2025-07-01 15:12:12 by Eclipse SUMO duarouter Version 1.23.1
<duarouterConfiguration xmlns:xsi="http://www.w3.org/2001/XMLSchema-instance" xsi:noNamespaceSchemaLocation="http://sumo.dlr.de/xsd/duarouterConfiguration.xsd">

    <input>
        <net-file value="osm.net.xml.gz"/>
        <route-files value="osm.pedestrian.trips.xml"/>
    </input>

    <output>
        <output-file value="osm.pedestrian.rou.xml"/>
        <alternatives-output value="NUL"/>
    </output>

    <time>
        <begin value="0.0"/>
        <end value="3600.0"/>
    </time>

    <report>
        <no-warnings value="true"/>
        <ignore-errors value="true"/>
        <no-step-log value="true"/>
    </report>

</duarouterConfiguration>
-->

<routes xmlns:xsi="http://www.w3.org/2001/XMLSchema-instance" xsi:noNamespaceSchemaLocation="http://sumo.dlr.de/xsd/routes_file.xsd">
    <vType id="ped_pedestrian" vClass="pedestrian"/>
    <person id="ped0" type="ped_pedestrian" depart="0.00">
        <walk edges="E22 E2 E1 E0"/>
    </person>
    <person id="ped1" type="ped_pedestrian" depart="3.99">
        <walk edges="E14 E13"/>
    </person>
    <person id="ped2" type="ped_pedestrian" depart="7.99">
        <walk edges="E3 E23"/>
    </person>
    <person id="ped3" type="ped_pedestrian" depart="11.98">
        <walk edges="E7 E5 E10"/>
    </person>
    <person id="ped4" type="ped_pedestrian" depart="15.98">
        <walk edges="E18 E0"/>
    </person>
    <person id="ped5" type="ped_pedestrian" depart="19.97">
        <walk edges="E13 E7 E2"/>
    </person>
    <person id="ped6" type="ped_pedestrian" depart="23.96">
        <walk edges="E0 E1 E7 E12"/>
    </person>
    <person id="ped7" type="ped_pedestrian" depart="27.96">
        <walk edges="E22 E20"/>
    </person>
    <person id="ped8" type="ped_pedestrian" depart="31.95">
        <walk edges="E13 E7 E2 E21"/>
    </person>
    <person id="ped9" type="ped_pedestrian" depart="35.95">
        <walk edges="E5 E1 E0"/>
    </person>
    <person id="ped10" type="ped_pedestrian" depart="39.94">
        <walk edges="E5 E2 E23"/>
    </person>
    <person id="ped11" type="ped_pedestrian" depart="43.93">
        <walk edges="E16 E11"/>
    </person>
    <person id="ped12" type="ped_pedestrian" depart="47.93">
        <walk edges="E8 E1 E5 E16"/>
    </person>
    <person id="ped13" type="ped_pedestrian" depart="51.92">
        <walk edges="E10"/>
    </person>
    <person id="ped14" type="ped_pedestrian" depart="55.92">
        <walk edges="E6 E2 E21"/>
    </person>
    <person id="ped15" type="ped_pedestrian" depart="59.91">
        <walk edges="E5 E3"/>
    </person>
    <person id="ped16" type="ped_pedestrian" depart="63.90">
        <walk edges="E2 E1 E9"/>
    </person>
    <person id="ped17" type="ped_pedestrian" depart="67.90">
        <walk edges="E17 E5 E2 E20"/>
    </person>
    <person id="ped18" type="ped_pedestrian" depart="71.89">
        <walk edges="E5 E2 E21"/>
    </person>
    <person id="ped19" type="ped_pedestrian" depart="75.89">
        <walk edges="E6 E2 E20"/>
    </person>
    <person id="ped20" type="ped_pedestrian" depart="79.88">
        <walk edges="E23 E2 E1"/>
    </person>
    <person id="ped21" type="ped_pedestrian" depart="83.87">
        <walk edges="E13 E14"/>
    </person>
    <person id="ped22" type="ped_pedestrian" depart="87.87">
        <walk edges="E1 E7 E13"/>
    </person>
    <person id="ped23" type="ped_pedestrian" depart="91.86">
        <walk edges="E10 E5 E7 E14"/>
    </person>
    <person id="ped24" type="ped_pedestrian" depart="95.86">
        <walk edges="E22 E2 E5 E16"/>
    </person>
    <person id="ped25" type="ped_pedestrian" depart="99.85">
        <walk edges="E16 E5 E7 E13"/>
    </person>
    <person id="ped26" type="ped_pedestrian" depart="103.84">
        <walk edges="E14 E7 E1 E8"/>
    </person>
    <person id="ped27" type="ped_pedestrian" depart="107.84">
        <walk edges="E22 E21"/>
    </person>
    <person id="ped28" type="ped_pedestrian" depart="111.83">
        <walk edges="E12 E7 E3"/>
    </person>
    <person id="ped29" type="ped_pedestrian" depart="115.83">
        <walk edges="E11 E17"/>
    </person>
    <person id="ped30" type="ped_pedestrian" depart="119.82">
        <walk edges="E9 E1 E2 E22"/>
    </person>
    <person id="ped31" type="ped_pedestrian" depart="123.81">
        <walk edges="E20 E23"/>
    </person>
    <person id="ped32" type="ped_pedestrian" depart="127.81">
        <walk edges="E6 E4"/>
    </person>
    <person id="ped33" type="ped_pedestrian" depart="131.80">
        <walk edges="E13 E7 E1 E0"/>
    </person>
    <person id="ped34" type="ped_pedestrian" depart="135.80">
        <walk edges="E15 E1 E7 E14"/>
    </person>
    <person id="ped35" type="ped_pedestrian" depart="139.79">
        <walk edges="E13 E7 E1 E8"/>
    </person>
    <person id="ped36" type="ped_pedestrian" depart="143.78">
        <walk edges="E7 E1 E15"/>
    </person>
    <person id="ped37" type="ped_pedestrian" depart="147.78">
        <walk edges="E22 E2 E5 E17"/>
    </person>
    <person id="ped38" type="ped_pedestrian" depart="151.77">
        <walk edges="E7 E19"/>
    </person>
    <person id="ped39" type="ped_pedestrian" depart="155.76">
        <walk edges="E14 E13"/>
    </person>
    <person id="ped40" type="ped_pedestrian" depart="159.76">
        <walk edges="E20 E2 E7 E14"/>
    </person>
    <person id="ped41" type="ped_pedestrian" depart="163.75">
        <walk edges="E21 E2 E7"/>
    </person>
    <person id="ped42" type="ped_pedestrian" depart="167.75">
        <walk edges="E17 E5 E7 E13"/>
    </person>
    <person id="ped43" type="ped_pedestrian" depart="171.74">
        <walk edges="E9 E1 E2"/>
    </person>
    <person id="ped44" type="ped_pedestrian" depart="175.73">
        <walk edges="E10 E5 E1"/>
    </person>
    <person id="ped45" type="ped_pedestrian" depart="179.73">
        <walk edges="E10 E5 E2 E22"/>
    </person>
    <person id="ped46" type="ped_pedestrian" depart="183.72">
        <walk edges="E5 E1 E18"/>
    </person>
    <person id="ped47" type="ped_pedestrian" depart="187.72">
        <walk edges="E1 E5 E17"/>
    </person>
    <person id="ped48" type="ped_pedestrian" depart="191.71">
        <walk edges="E9 E1 E2"/>
    </person>
    <person id="ped49" type="ped_pedestrian" depart="195.70">
        <walk edges="E9 E1 E6"/>
    </person>
    <person id="ped50" type="ped_pedestrian" depart="199.70">
        <walk edges="E0 E1 E3"/>
    </person>
    <person id="ped51" type="ped_pedestrian" depart="203.69">
        <walk edges="E23 E2"/>
    </person>
    <person id="ped52" type="ped_pedestrian" depart="207.69">
        <walk edges="E14 E7 E2 E22"/>
    </person>
    <person id="ped53" type="ped_pedestrian" depart="211.68">
        <walk edges="E10 E5 E1 E18"/>
    </person>
    <person id="ped54" type="ped_pedestrian" depart="215.67">
        <walk edges="E18 E8"/>
    </person>
    <person id="ped55" type="ped_pedestrian" depart="219.67">
        <walk edges="E7 E14"/>
    </person>
    <person id="ped56" type="ped_pedestrian" depart="223.66">
        <walk edges="E2 E7 E12"/>
    </person>
    <person id="ped57" type="ped_pedestrian" depart="227.66">
        <walk edges="E7 E6"/>
    </person>
    <person id="ped58" type="ped_pedestrian" depart="231.65">
        <walk edges="E15 E1 E2 E22"/>
    </person>
    <person id="ped59" type="ped_pedestrian" depart="235.64">
        <walk edges="E21 E2 E5 E11"/>
    </person>
    <person id="ped60" type="ped_pedestrian" depart="239.64">
        <walk edges="E4 E2"/>
    </person>
    <person id="ped61" type="ped_pedestrian" depart="243.63">
        <walk edges="E4 E2"/>
    </person>
    <person id="ped62" type="ped_pedestrian" depart="247.63">
        <walk edges="E0 E15"/>
    </person>
    <person id="ped63" type="ped_pedestrian" depart="251.62">
        <walk edges="E0 E8"/>
    </person>
    <person id="ped64" type="ped_pedestrian" depart="255.61">
        <walk edges="E7 E5"/>
    </person>
    <person id="ped65" type="ped_pedestrian" depart="259.61">
        <walk edges="E15 E1"/>
    </person>
    <person id="ped66" type="ped_pedestrian" depart="263.60">
        <walk edges="E7 E1 E8"/>
    </person>
    <person id="ped67" type="ped_pedestrian" depart="267.60">
        <walk edges="E10 E5 E7 E19"/>
    </person>
    <person id="ped68" type="ped_pedestrian" depart="271.59">
        <walk edges="E1 E4"/>
    </person>
    <person id="ped69" type="ped_pedestrian" depart="275.58">
        <walk edges="E4 E5 E11"/>
    </person>
    <person id="ped70" type="ped_pedestrian" depart="279.58">
        <walk edges="E19 E7 E2 E20"/>
    </person>
    <person id="ped71" type="ped_pedestrian" depart="283.57">
        <walk edges="E14 E7 E6"/>
    </person>
    <person id="ped72" type="ped_pedestrian" depart="287.57">
        <walk edges="E18 E1 E7 E13"/>
    </person>
    <person id="ped73" type="ped_pedestrian" depart="291.56">
        <walk edges="E2 E3"/>
    </person>
    <person id="ped74" type="ped_pedestrian" depart="295.55">
        <walk edges="E12 E7 E1 E15"/>
    </person>
    <person id="ped75" type="ped_pedestrian" depart="299.55">
        <walk edges="E9 E1 E2 E22"/>
    </person>
    <person id="ped76" type="ped_pedestrian" depart="303.54">
        <walk edges="E18 E1 E2"/>
    </person>
    <person id="ped77" type="ped_pedestrian" depart="307.54">
        <walk edges="E10 E5 E7 E13"/>
    </person>
    <person id="ped78" type="ped_pedestrian" depart="311.53">
        <walk edges="E16 E5 E2 E21"/>
    </person>
    <person id="ped79" type="ped_pedestrian" depart="315.52">
        <walk edges="E13"/>
    </person>
    <person id="ped80" type="ped_pedestrian" depart="319.52">
        <walk edges="E1 E2 E22"/>
    </person>
    <person id="ped81" type="ped_pedestrian" depart="323.51">
        <walk edges="E13 E7"/>
    </person>
    <person id="ped82" type="ped_pedestrian" depart="327.51">
        <walk edges="E6 E1"/>
    </person>
    <person id="ped83" type="ped_pedestrian" depart="331.50">
        <walk edges="E13 E7 E2 E23"/>
    </person>
    <person id="ped84" type="ped_pedestrian" depart="335.49">
        <walk edges="E13 E7 E5 E11"/>
    </person>
    <person id="ped85" type="ped_pedestrian" depart="339.49">
        <walk edges="E8 E1 E2 E20"/>
    </person>
    <person id="ped86" type="ped_pedestrian" depart="343.48">
        <walk edges="E19 E7 E4"/>
    </person>
    <person id="ped87" type="ped_pedestrian" depart="347.48">
        <walk edges="E5 E7 E12"/>
    </person>
    <person id="ped88" type="ped_pedestrian" depart="351.47">
        <walk edges="E10 E5 E1 E18"/>
    </person>
    <person id="ped89" type="ped_pedestrian" depart="355.46">
        <walk edges="E18 E1 E7 E19"/>
    </person>
    <person id="ped90" type="ped_pedestrian" depart="359.46">
        <walk edges="E3 E23"/>
    </person>
    <person id="ped91" type="ped_pedestrian" depart="363.45">
        <walk edges="E9 E1 E5 E10"/>
    </person>
    <person id="ped92" type="ped_pedestrian" depart="367.45">
        <walk edges="E17 E16"/>
    </person>
    <person id="ped93" type="ped_pedestrian" depart="371.44">
        <walk edges="E6 E7 E13"/>
    </person>
    <person id="ped94" type="ped_pedestrian" depart="375.43">
        <walk edges="E12 E7 E1 E18"/>
    </person>
    <person id="ped95" type="ped_pedestrian" depart="379.43">
        <walk edges="E18 E1 E7 E14"/>
    </person>
    <person id="ped96" type="ped_pedestrian" depart="383.42">
        <walk edges="E13 E7 E1 E8"/>
    </person>
    <person id="ped97" type="ped_pedestrian" depart="387.42">
        <walk edges="E18 E1 E6"/>
    </person>
    <person id="ped98" type="ped_pedestrian" depart="391.41">
        <walk edges="E20 E2 E1"/>
    </person>
    <person id="ped99" type="ped_pedestrian" depart="395.40">
        <walk edges="E9 E1 E6"/>
    </person>
    <person id="ped100" type="ped_pedestrian" depart="399.40">
        <walk edges="E9 E8"/>
    </person>
    <person id="ped101" type="ped_pedestrian" depart="403.39">
        <walk edges="E6 E5 E11"/>
    </person>
    <person id="ped102" type="ped_pedestrian" depart="407.39">
        <walk edges="E19 E13"/>
    </person>
    <person id="ped103" type="ped_pedestrian" depart="411.38">
        <walk edges="E17 E5 E1"/>
    </person>
    <person id="ped104" type="ped_pedestrian" depart="415.37">
        <walk edges="E17 E5 E1 E9"/>
    </person>
    <person id="ped105" type="ped_pedestrian" depart="419.37">
        <walk edges="E14 E7 E4"/>
    </person>
    <person id="ped106" type="ped_pedestrian" depart="423.36">
        <walk edges="E18"/>
    </person>
    <person id="ped107" type="ped_pedestrian" depart="427.36">
        <walk edges="E8 E9"/>
    </person>
    <person id="ped108" type="ped_pedestrian" depart="431.35">
        <walk edges="E20 E3"/>
    </person>
    <person id="ped109" type="ped_pedestrian" depart="435.34">
        <walk edges="E11 E5 E1 E15"/>
    </person>
    <person id="ped110" type="ped_pedestrian" depart="439.34">
        <walk edges="E9 E1 E2 E20"/>
    </person>
    <person id="ped111" type="ped_pedestrian" depart="443.33">
        <walk edges="E20 E3"/>
    </person>
    <person id="ped112" type="ped_pedestrian" depart="447.33">
        <walk edges="E1 E2 E21"/>
    </person>
    <person id="ped113" type="ped_pedestrian" depart="451.32">
        <walk edges="E2 E6"/>
    </person>
    <person id="ped114" type="ped_pedestrian" depart="455.31">
        <walk edges="E11 E5 E1 E9"/>
    </person>
    <person id="ped115" type="ped_pedestrian" depart="459.31">
        <walk edges="E1 E7 E12"/>
    </person>
    <person id="ped116" type="ped_pedestrian" depart="463.30">
        <walk edges="E21 E23"/>
    </person>
    <person id="ped117" type="ped_pedestrian" depart="467.29">
        <walk edges="E13 E7 E5 E10"/>
    </person>
    <person id="ped118" type="ped_pedestrian" depart="471.29">
        <walk edges="E7 E13"/>
    </person>
    <person id="ped119" type="ped_pedestrian" depart="475.28">
        <walk edges="E21"/>
    </person>
    <person id="ped120" type="ped_pedestrian" depart="479.28">
        <walk edges="E18 E1 E2 E21"/>
    </person>
    <person id="ped121" type="ped_pedestrian" depart="483.27">
        <walk edges="E2 E1 E8"/>
    </person>
    <person id="ped122" type="ped_pedestrian" depart="487.26">
        <walk edges="E12 E7 E3"/>
    </person>
    <person id="ped123" type="ped_pedestrian" depart="491.26">
        <walk edges="E13 E7 E5 E17"/>
    </person>
    <person id="ped124" type="ped_pedestrian" depart="495.25">
        <walk edges="E23 E2 E1 E15"/>
    </person>
    <person id="ped125" type="ped_pedestrian" depart="499.25">
        <walk edges="E15 E1 E4"/>
    </person>
    <person id="ped126" type="ped_pedestrian" depart="503.24">
        <walk edges="E1 E18"/>
    </person>
    <person id="ped127" type="ped_pedestrian" depart="507.23">
        <walk edges="E9"/>
    </person>
    <person id="ped128" type="ped_pedestrian" depart="511.23">
        <walk edges="E1 E7 E13"/>
    </person>
    <person id="ped129" type="ped_pedestrian" depart="515.22">
        <walk edges="E14 E7 E1 E8"/>
    </person>
    <person id="ped130" type="ped_pedestrian" depart="519.22">
        <walk edges="E7"/>
    </person>
    <person id="ped131" type="ped_pedestrian" depart="523.21">
        <walk edges="E16 E11"/>
    </person>
    <person id="ped132" type="ped_pedestrian" depart="527.20">
        <walk edges="E6 E2 E23"/>
    </person>
    <person id="ped133" type="ped_pedestrian" depart="531.20">
        <walk edges="E21 E2 E1 E9"/>
    </person>
    <person id="ped134" type="ped_pedestrian" depart="535.19">
        <walk edges="E22 E2 E1 E0"/>
    </person>
    <person id="ped135" type="ped_pedestrian" depart="539.19">
        <walk edges="E5 E1 E15"/>
    </person>
    <person id="ped136" type="ped_pedestrian" depart="543.18">
        <walk edges="E22 E2 E1 E8"/>
    </person>
    <person id="ped137" type="ped_pedestrian" depart="547.17">
        <walk edges="E11 E10"/>
    </person>
    <person id="ped138" type="ped_pedestrian" depart="551.17">
        <walk edges="E10 E5 E2 E20"/>
    </person>
    <person id="ped139" type="ped_pedestrian" depart="555.16">
        <walk edges="E14 E7 E2 E21"/>
    </person>
    <person id="ped140" type="ped_pedestrian" depart="559.16">
        <walk edges="E3 E7 E12"/>
    </person>
    <person id="ped141" type="ped_pedestrian" depart="563.15">
        <walk edges="E22 E2 E7 E14"/>
    </person>
    <person id="ped142" type="ped_pedestrian" depart="567.14">
        <walk edges="E19 E7"/>
    </person>
    <person id="ped143" type="ped_pedestrian" depart="571.14">
        <walk edges="E6 E5 E10"/>
    </person>
    <person id="ped144" type="ped_pedestrian" depart="575.13">
        <walk edges="E18 E1 E7 E14"/>
    </person>
    <person id="ped145" type="ped_pedestrian" depart="579.13">
        <walk edges="E0 E1 E4"/>
    </person>
    <person id="ped146" type="ped_pedestrian" depart="583.12">
        <walk edges="E22 E2 E7 E14"/>
    </person>
    <person id="ped147" type="ped_pedestrian" depart="587.11">
        <walk edges="E3 E20"/>
    </person>
    <person id="ped148" type="ped_pedestrian" depart="591.11">
        <walk edges="E18 E0"/>
    </person>
    <person id="ped149" type="ped_pedestrian" depart="595.10">
        <walk edges="E1 E7"/>
    </person>
    <person id="ped150" type="ped_pedestrian" depart="599.10">
        <walk edges="E7 E2 E20"/>
    </person>
    <person id="ped151" type="ped_pedestrian" depart="603.09">
        <walk edges="E6 E2 E20"/>
    </person>
    <person id="ped152" type="ped_pedestrian" depart="607.08">
        <walk edges="E11"/>
    </person>
    <person id="ped153" type="ped_pedestrian" depart="611.08">
        <walk edges="E15 E1 E7"/>
    </person>
    <person id="ped154" type="ped_pedestrian" depart="615.07">
        <walk edges="E5 E6"/>
    </person>
    <person id="ped155" type="ped_pedestrian" depart="619.07">
        <walk edges="E7 E13"/>
    </person>
    <person id="ped156" type="ped_pedestrian" depart="623.06">
        <walk edges="E13 E7 E5 E10"/>
    </person>
    <person id="ped157" type="ped_pedestrian" depart="627.05">
        <walk edges="E4 E7"/>
    </person>
    <person id="ped158" type="ped_pedestrian" depart="631.05">
        <walk edges="E17 E5 E2 E21"/>
    </person>
    <person id="ped159" type="ped_pedestrian" depart="635.04">
        <walk edges="E11 E5 E1 E8"/>
    </person>
    <person id="ped160" type="ped_pedestrian" depart="639.04">
        <walk edges="E6 E1 E9"/>
    </person>
    <person id="ped161" type="ped_pedestrian" depart="643.03">
        <walk edges="E5 E7"/>
    </person>
    <person id="ped162" type="ped_pedestrian" depart="647.02">
        <walk edges="E0 E1 E3"/>
    </person>
    <person id="ped163" type="ped_pedestrian" depart="651.02">
        <walk edges="E15 E8"/>
    </person>
    <person id="ped164" type="ped_pedestrian" depart="655.01">
        <walk edges="E5 E6"/>
    </person>
    <person id="ped165" type="ped_pedestrian" depart="659.01">
        <walk edges="E5 E7 E14"/>
    </person>
    <person id="ped166" type="ped_pedestrian" depart="663.00">
        <walk edges="E4 E5 E10"/>
    </person>
    <person id="ped167" type="ped_pedestrian" depart="666.99">
        <walk edges="E6"/>
    </person>
    <person id="ped168" type="ped_pedestrian" depart="670.99">
        <walk edges="E13 E7 E5"/>
    </person>
    <person id="ped169" type="ped_pedestrian" depart="674.98">
        <walk edges="E19 E7 E1 E15"/>
    </person>
    <person id="ped170" type="ped_pedestrian" depart="678.98">
        <walk edges="E5 E7 E13"/>
    </person>
    <person id="ped171" type="ped_pedestrian" depart="682.97">
        <walk edges="E0 E1 E7 E12"/>
    </person>
    <person id="ped172" type="ped_pedestrian" depart="686.96">
        <walk edges="E15 E1 E6"/>
    </person>
    <person id="ped173" type="ped_pedestrian" depart="690.96">
        <walk edges="E9 E1 E7 E14"/>
    </person>
    <person id="ped174" type="ped_pedestrian" depart="694.95">
        <walk edges="E22 E2 E5 E17"/>
    </person>
    <person id="ped175" type="ped_pedestrian" depart="698.95">
        <walk edges="E9 E1 E2"/>
    </person>
    <person id="ped176" type="ped_pedestrian" depart="702.94">
        <walk edges="E8 E1 E5 E10"/>
    </person>
    <person id="ped177" type="ped_pedestrian" depart="706.93">
        <walk edges="E9 E1 E7 E12"/>
    </person>
    <person id="ped178" type="ped_pedestrian" depart="710.93">
        <walk edges="E9 E1 E7 E14"/>
    </person>
    <person id="ped179" type="ped_pedestrian" depart="714.92">
        <walk edges="E10 E5 E1 E18"/>
    </person>
    <person id="ped180" type="ped_pedestrian" depart="718.92">
        <walk edges="E3 E1 E15"/>
    </person>
    <person id="ped181" type="ped_pedestrian" depart="722.91">
        <walk edges="E21 E2"/>
    </person>
    <person id="ped182" type="ped_pedestrian" depart="726.90">
        <walk edges="E17 E5 E2 E20"/>
    </person>
    <person id="ped183" type="ped_pedestrian" depart="730.90">
        <walk edges="E14 E7 E3"/>
    </person>
    <person id="ped184" type="ped_pedestrian" depart="734.89">
        <walk edges="E0 E8"/>
    </person>
    <person id="ped185" type="ped_pedestrian" depart="738.89">
        <walk edges="E2 E3"/>
    </person>
    <person id="ped186" type="ped_pedestrian" depart="742.88">
        <walk edges="E3 E23"/>
    </person>
    <person id="ped187" type="ped_pedestrian" depart="746.87">
        <walk edges="E16 E5 E1"/>
    </person>
    <person id="ped188" type="ped_pedestrian" depart="750.87">
        <walk edges="E22 E2 E1 E15"/>
    </person>
    <person id="ped189" type="ped_pedestrian" depart="754.86">
        <walk edges="E15 E1 E6"/>
    </person>
    <person id="ped190" type="ped_pedestrian" depart="758.85">
        <walk edges="E3 E1 E15"/>
    </person>
    <person id="ped191" type="ped_pedestrian" depart="762.85">
        <walk edges="E15 E1 E5 E17"/>
    </person>
    <person id="ped192" type="ped_pedestrian" depart="766.84">
        <walk edges="E17 E5 E1 E15"/>
    </person>
    <person id="ped193" type="ped_pedestrian" depart="770.84">
        <walk edges="E11 E5 E1 E18"/>
    </person>
    <person id="ped194" type="ped_pedestrian" depart="774.83">
        <walk edges="E8 E1 E2 E23"/>
    </person>
    <person id="ped195" type="ped_pedestrian" depart="778.82">
        <walk edges="E7 E2 E21"/>
    </person>
    <person id="ped196" type="ped_pedestrian" depart="782.82">
        <walk edges="E15 E1 E2 E20"/>
    </person>
    <person id="ped197" type="ped_pedestrian" depart="786.81">
        <walk edges="E0 E1 E7 E14"/>
    </person>
    <person id="ped198" type="ped_pedestrian" depart="790.81">
        <walk edges="E18 E1 E2 E20"/>
    </person>
    <person id="ped199" type="ped_pedestrian" depart="794.80">
        <walk edges="E22 E2 E7 E19"/>
    </person>
    <person id="ped200" type="ped_pedestrian" depart="798.79">
        <walk edges="E18 E1 E7 E13"/>
    </person>
    <person id="ped201" type="ped_pedestrian" depart="802.79">
        <walk edges="E19 E7"/>
    </person>
    <person id="ped202" type="ped_pedestrian" depart="806.78">
        <walk edges="E5 E7 E12"/>
    </person>
    <person id="ped203" type="ped_pedestrian" depart="810.78">
        <walk edges="E10 E5 E2"/>
    </person>
    <person id="ped204" type="ped_pedestrian" depart="814.77">
        <walk edges="E22 E2 E5 E16"/>
    </person>
    <person id="ped205" type="ped_pedestrian" depart="818.76">
        <walk edges="E5 E4"/>
    </person>
    <person id="ped206" type="ped_pedestrian" depart="822.76">
        <walk edges="E23 E2 E7 E13"/>
    </person>
    <person id="ped207" type="ped_pedestrian" depart="826.75">
        <walk edges="E12 E7 E1 E0"/>
    </person>
    <person id="ped208" type="ped_pedestrian" depart="830.75">
        <walk edges="E13 E19"/>
    </person>
    <person id="ped209" type="ped_pedestrian" depart="834.74">
        <walk edges="E6 E1"/>
    </person>
    <person id="ped210" type="ped_pedestrian" depart="838.73">
        <walk edges="E17 E5 E2 E22"/>
    </person>
    <person id="ped211" type="ped_pedestrian" depart="842.73">
        <walk edges="E12 E7 E2 E23"/>
    </person>
    <person id="ped212" type="ped_pedestrian" depart="846.72">
        <walk edges="E19 E13"/>
    </person>
    <person id="ped213" type="ped_pedestrian" depart="850.72">
        <walk edges="E22 E2 E1 E0"/>
    </person>
    <person id="ped214" type="ped_pedestrian" depart="854.71">
        <walk edges="E4"/>
    </person>
    <person id="ped215" type="ped_pedestrian" depart="858.70">
        <walk edges="E10 E5 E1 E18"/>
    </person>
    <person id="ped216" type="ped_pedestrian" depart="862.70">
        <walk edges="E12 E7 E1 E8"/>
    </person>
    <person id="ped217" type="ped_pedestrian" depart="866.69">
        <walk edges="E2 E1"/>
    </person>
    <person id="ped218" type="ped_pedestrian" depart="870.69">
        <walk edges="E13 E7 E6"/>
    </person>
    <person id="ped219" type="ped_pedestrian" depart="874.68">
        <walk edges="E18 E1 E5"/>
    </person>
    <person id="ped220" type="ped_pedestrian" depart="878.67">
        <walk edges="E23 E2 E1 E9"/>
    </person>
    <person id="ped221" type="ped_pedestrian" depart="882.67">
        <walk edges="E21 E2 E1 E8"/>
    </person>
    <person id="ped222" type="ped_pedestrian" depart="886.66">
        <walk edges="E7 E2 E21"/>
    </person>
    <person id="ped223" type="ped_pedestrian" depart="890.66">
        <walk edges="E3 E2"/>
    </person>
    <person id="ped224" type="ped_pedestrian" depart="894.65">
        <walk edges="E5 E2 E20"/>
    </person>
    <person id="ped225" type="ped_pedestrian" depart="898.64">
        <walk edges="E7 E3"/>
    </person>
    <person id="ped226" type="ped_pedestrian" depart="902.64">
        <walk edges="E19 E14"/>
    </person>
    <person id="ped227" type="ped_pedestrian" depart="906.63">
        <walk edges="E13 E7 E2 E22"/>
    </person>
    <person id="ped228" type="ped_pedestrian" depart="910.63">
        <walk edges="E4 E2"/>
    </person>
    <person id="ped229" type="ped_pedestrian" depart="914.62">
        <walk edges="E22 E2 E7 E14"/>
    </person>
    <person id="ped230" type="ped_pedestrian" depart="918.61">
        <walk edges="E1 E7 E14"/>
    </person>
    <person id="ped231" type="ped_pedestrian" depart="922.61">
        <walk edges="E14 E7 E1 E15"/>
    </person>
    <person id="ped232" type="ped_pedestrian" depart="926.60">
        <walk edges="E2 E5 E11"/>
    </person>
    <person id="ped233" type="ped_pedestrian" depart="930.60">
        <walk edges="E13 E7 E2 E23"/>
    </person>
    <person id="ped234" type="ped_pedestrian" depart="934.59">
        <walk edges="E23 E2 E1"/>
    </person>
    <person id="ped235" type="ped_pedestrian" depart="938.58">
        <walk edges="E17 E5 E2 E20"/>
    </person>
    <person id="ped236" type="ped_pedestrian" depart="942.58">
        <walk edges="E17 E5 E7 E12"/>
    </person>
    <person id="ped237" type="ped_pedestrian" depart="946.57">
        <walk edges="E18 E1 E7"/>
    </person>
    <person id="ped238" type="ped_pedestrian" depart="950.57">
        <walk edges="E21 E23"/>
    </person>
    <person id="ped239" type="ped_pedestrian" depart="954.56">
        <walk edges="E6 E4"/>
    </person>
    <person id="ped240" type="ped_pedestrian" depart="958.55">
        <walk edges="E17 E5 E1 E0"/>
    </person>
    <person id="ped241" type="ped_pedestrian" depart="962.55">
        <walk edges="E16 E5 E4"/>
    </person>
    <person id="ped242" type="ped_pedestrian" depart="966.54">
        <walk edges="E6 E1 E8"/>
    </person>
    <person id="ped243" type="ped_pedestrian" depart="970.54">
        <walk edges="E18 E1 E3"/>
    </person>
    <person id="ped244" type="ped_pedestrian" depart="974.53">
        <walk edges="E20 E21"/>
    </person>
    <person id="ped245" type="ped_pedestrian" depart="978.52">
        <walk edges="E13"/>
    </person>
    <person id="ped246" type="ped_pedestrian" depart="982.52">
        <walk edges="E18 E0"/>
    </person>
    <person id="ped247" type="ped_pedestrian" depart="986.51">
        <walk edges="E16 E5 E2 E23"/>
    </person>
    <person id="ped248" type="ped_pedestrian" depart="990.51">
        <walk edges="E17 E11"/>
    </person>
    <person id="ped249" type="ped_pedestrian" depart="994.50">
        <walk edges="E19 E7 E5 E11"/>
    </person>
    <person id="ped250" type="ped_pedestrian" depart="998.49">
        <walk edges="E21 E2 E1 E0"/>
    </person>
    <person id="ped251" type="ped_pedestrian" depart="1002.49">
        <walk edges="E17 E5 E2 E20"/>
    </person>
    <person id="ped252" type="ped_pedestrian" depart="1006.48">
        <walk edges="E0 E1 E2 E22"/>
    </person>
    <person id="ped253" type="ped_pedestrian" depart="1010.48">
        <walk edges="E11 E5 E7 E19"/>
    </person>
    <person id="ped254" type="ped_pedestrian" depart="1014.47">
        <walk edges="E1 E5 E17"/>
    </person>
    <person id="ped255" type="ped_pedestrian" depart="1018.46">
        <walk edges="E13 E7 E1 E15"/>
    </person>
    <person id="ped256" type="ped_pedestrian" depart="1022.46">
        <walk edges="E4 E5 E17"/>
    </person>
    <person id="ped257" type="ped_pedestrian" depart="1026.45">