<?xml version="1.0" encoding="UTF-8"?>

<!-- generated on 2025-07-03 17:54:24.760390 by randomTrips.py v1_23_1+0000-676720d13f6
<configuration>
    <net-file value="osm.net.xml.gz"/>
    <output-trip-file value="osm.motorcycle.trips.xml"/>
    <route-file value="osm.motorcycle.rou.xml"/>
    <prefix value="motorcycle"/>
    <trip-attributes value="departLane=&quot;best&quot;"/>
    <fringe-start-attributes value="departSpeed=&quot;max&quot;"/>
    <vehicle-class value="motorcycle"/>
    <fringe-factor value="2"/>
    <edge-permission value="motorcycle"/>
    <via-edge-types value="highway.motorway,highway.motorway_link,highway.trunk_link,highway.primary_link,highway.secondary_link,highway.tertiary_link"/>
    <max-distance value="1200.0"/>
    <remove-loops value="True"/>
    <validate value="True"/>
    <insertion-density value="40.0"/>
</configuration>
-->

<!-- generated on 2025-07-03 17:54:24 by Eclipse SUMO duarouter Version 1.23.1
<duarouterConfiguration xmlns:xsi="http://www.w3.org/2001/XMLSchema-instance" xsi:noNamespaceSchemaLocation="http://sumo.dlr.de/xsd/duarouterConfiguration.xsd">

    <input>
        <net-file value="osm.net.xml.gz"/>
        <route-files value="osm.motorcycle.trips.xml"/>
    </input>

    <output>
        <output-file value="osm.motorcycle.rou.xml"/>
        <alternatives-output value="NUL"/>
    </output>

    <processing>
        <remove-loops value="true"/>
    </processing>

    <time>
        <begin value="0.0"/>
        <end value="3600.0"/>
    </time>

    <report>
        <no-warnings value="true"/>
        <ignore-errors value="true"/>
        <no-step-log value="true"/>
    </report>

</duarouterConfiguration>
-->

<routes xmlns:xsi="http://www.w3.org/2001/XMLSchema-instance" xsi:noNamespaceSchemaLocation="http://sumo.dlr.de/xsd/routes_file.xsd">
    <vType id="motorcycle_motorcycle" vClass="motorcycle"/>
    <vehicle id="motorcycle0" type="motorcycle_motorcycle" depart="0.00" departLane="best" departSpeed="max">
        <route edges="E16 E5 E6 E13"/>
    </vehicle>
    <vehicle id="motorcycle1" type="motorcycle_motorcycle" depart="9.22" departLane="best">
        <route edges="E7 E4 E10"/>
    </vehicle>
    <vehicle id="motorcycle2" type="motorcycle_motorcycle" depart="18.43" departLane="best" departSpeed="max">
        <route edges="E12 E7 E2"/>
    </vehicle>
    <vehicle id="motorcycle3" type="motorcycle_motorcycle" depart="27.65" departLane="best">
        <route edges="E0 E6 E13"/>
    </vehicle>
    <vehicle id="motorcycle4" type="motorcycle_motorcycle" depart="36.87" departLane="best" departSpeed="max">
        <route edges="E23 E20"/>
    </vehicle>
    <vehicle id="motorcycle5" type="motorcycle_motorcycle" depart="46.08" departLane="best" departSpeed="max">
        <route edges="E12 E7 E2 E20"/>
    </vehicle>
    <vehicle id="motorcycle6" type="motorcycle_motorcycle" depart="55.30" departLane="best">
        <route edges="E5 E2 E22"/>
    </vehicle>
    <vehicle id="motorcycle7" type="motorcycle_motorcycle" depart="64.52" departLane="best" departSpeed="max">
        <route edges="E18 E0 E4 E10"/>
    </vehicle>
    <vehicle id="motorcycle8" type="motorcycle_motorcycle" depart="73.74" departLane="best" departSpeed="max">
        <route edges="E9 E15"/>
    </vehicle>
    <vehicle id="motorcycle9" type="motorcycle_motorcycle" depart="82.95" departLane="best" departSpeed="max">
        <route edges="E18 E0 E2 E20"/>
    </vehicle>
    <vehicle id="motorcycle10" type="motorcycle_motorcycle" depart="92.17" departLane="best">
        <route edges="E5 E2 E20"/>
    </vehicle>
    <vehicle id="motorcycle11" type="motorcycle_motorcycle" depart="101.39" departLane="best" departSpeed="max">
        <route edges="E23 E3 E1"/>
    </vehicle>
    <vehicle id="motorcycle12" type="motorcycle_motorcycle" depart="110.60" departLane="best" departSpeed="max">
        <route edges="E12 E14"/>
    </vehicle>
    <vehicle id="motorcycle13" type="motorcycle_motorcycle" depart="119.82" departLane="best" departSpeed="max">
        <route edges="E11 E5 E6 E14"/>
    </vehicle>
    <vehicle id="motorcycle14" type="motorcycle_motorcycle" depart="129.04" departLane="best" departSpeed="max">
        <route edges="E23 E3 E1 E15"/>
    </vehicle>
    <vehicle id="motorcycle15" type="motorcycle_motorcycle" depart="138.25" departLane="best" departSpeed="max">
        <route edges="E18 E0 E6 E13"/>
    </vehicle>
    <vehicle id="motorcycle16" type="motorcycle_motorcycle" depart="147.47" departLane="best" departSpeed="max">
        <route edges="E16 E5 E1 E8"/>
    </vehicle>
    <vehicle id="motorcycle17" type="motorcycle_motorcycle" depart="156.69" departLane="best" departSpeed="max">
        <route edges="E23 E20"/>
    </vehicle>
    <vehicle id="motorcycle18" type="motorcycle_motorcycle" depart="165.90" departLane="best" departSpeed="max">
        <route edges="E11 E5 E1 E15"/>
    </vehicle>
    <vehicle id="motorcycle19" type="motorcycle_motorcycle" depart="175.12" departLane="best" departSpeed="max">
        <route edges="E9 E0 E2 E22"/>
    </vehicle>
    <vehicle id="motorcycle20" type="motorcycle_motorcycle" depart="184.34" departLane="best" departSpeed="max">
        <route edges="E21 E22"/>
    </vehicle>
    <vehicle id="motorcycle21" type="motorcycle_motorcycle" depart="193.56" departLane="best" departSpeed="max">
        <route edges="E16 E5 E6 E14"/>
    </vehicle>
    <vehicle id="motorcycle22" type="motorcycle_motorcycle" depart="202.77" departLane="best" departSpeed="max">
        <route edges="E12 E7 E1 E8"/>
    </vehicle>
    <vehicle id="motorcycle23" type="motorcycle_motorcycle" depart="211.99" departLane="best" departSpeed="max">
        <route edges="E23 E3 E1 E15"/>
    </vehicle>
    <vehicle id="motorcycle24" type="motorcycle_motorcycle" depart="221.21" departLane="best">
        <route edges="E7 E4 E17"/>
    </vehicle>
    <vehicle id="motorcycle25" type="motorcycle_motorcycle" depart="230.42" departLane="best" departSpeed="max">
        <route edges="E16 E5 E6 E13"/>
    </vehicle>
    <vehicle id="motorcycle26" type="motorcycle_motorcycle" depart="239.64" departLane="best" departSpeed="max">
        <route edges="E21 E3 E6 E14"/>
    </vehicle>
    <vehicle id="motorcycle27" type="motorcycle_motorcycle" depart="248.86" departLane="best" departSpeed="max">
        <route edges="E18 E0 E6 E13"/>
    </vehicle>
    <vehicle id="motorcycle28" type="motorcycle_motorcycle" depart="258.07" departLane="best" departSpeed="max">
        <route edges="E9 E0 E2"/>
    </vehicle>
    <vehicle id="motorcycle29" type="motorcycle_motorcycle" depart="267.29" departLane="best" departSpeed="max">
        <route edges="E11 E5 E1"/>
    </vehicle>
    <vehicle id="motorcycle30" type="motorcycle_motorcycle" depart="276.51" departLane="best" departSpeed="max">
        <route edges="E11 E5 E2 E22"/>
    </vehicle>
    <vehicle id="motorcycle31" type="motorcycle_motorcycle" depart="285.72" departLane="best">
        <route edges="E1 E15"/>
    </vehicle>
    <vehicle id="motorcycle32" type="motorcycle_motorcycle" depart="294.94" departLane="best" departSpeed="max">
        <route edges="E9 E0 E2"/>
    </vehicle>
    <vehicle id="motorcycle33" type="motorcycle_motorcycle" depart="304.16" departLane="best" departSpeed="max">
        <route edges="E9 E0 E6"/>
    </vehicle>
    <vehicle id="motorcycle34" type="motorcycle_motorcycle" depart="313.38" departLane="best" departSpeed="max">
        <route edges="E16 E5 E2 E22"/>
    </vehicle>
    <vehicle id="motorcycle35" type="motorcycle_motorcycle" depart="322.59" departLane="best" departSpeed="max">
        <route edges="E11 E17"/>
    </vehicle>
    <vehicle id="motorcycle36" type="motorcycle_motorcycle" depart="331.81" departLane="best" departSpeed="max">
        <route edges="E19 E7 E1 E8"/>
    </vehicle>
    <vehicle id="motorcycle37" type="motorcycle_motorcycle" depart="341.03" departLane="best" departSpeed="max">
        <route edges="E16 E5 E2 E22"/>
    </vehicle>
    <vehicle id="motorcycle38" type="motorcycle_motorcycle" depart="350.24" departLane="best" departSpeed="max">
        <route edges="E21 E3 E4 E10"/>
    </vehicle>
    <vehicle id="motorcycle39" type="motorcycle_motorcycle" depart="359.46" departLane="best">
        <route edges="E0 E6 E14"/>
    </vehicle>
    <vehicle id="motorcycle40" type="motorcycle_motorcycle" depart="368.68" departLane="best" departSpeed="max">
        <route edges="E16 E5 E1"/>
    </vehicle>
    <vehicle id="motorcycle41" type="motorcycle_motorcycle" depart="377.89" departLane="best">
        <route edges="E7 E1 E8"/>
    </vehicle>
    <vehicle id="motorcycle42" type="motorcycle_motorcycle" depart="387.11" departLane="best" departSpeed="max">
        <route edges="E11 E17"/>
    </vehicle>
    <vehicle id="motorcycle43" type="motorcycle_motorcycle" depart="396.33" departLane="best">
        <route edges="E4 E10"/>
    </vehicle>
    <vehicle id="motorcycle44" type="motorcycle_motorcycle" depart="405.54" departLane="best" departSpeed="max">
        <route edges="E19 E7 E2 E20"/>
    </vehicle>
    <vehicle id="motorcycle45" type="motorcycle_motorcycle" depart="414.76" departLane="best" departSpeed="max">
        <route edges="E16 E5 E6"/>
    </vehicle>
    <vehicle id="motorcycle46" type="motorcycle_motorcycle" depart="423.98" departLane="best" departSpeed="max">
        <route edges="E19 E13"/>
    </vehicle>
    <vehicle id="motorcycle47" type="motorcycle_motorcycle" depart="433.20" departLane="best" departSpeed="max">
        <route edges="E12 E14"/>
    </vehicle>
    <vehicle id="motorcycle48" type="motorcycle_motorcycle" depart="442.41" departLane="best" departSpeed="max">
        <route edges="E9 E0 E2 E22"/>
    </vehicle>
    <vehicle id="motorcycle49" type="motorcycle_motorcycle" depart="451.63" departLane="best" departSpeed="max">
        <route edges="E19 E7 E2"/>
    </vehicle>
    <vehicle id="motorcycle50" type="motorcycle_motorcycle" depart="460.85" departLane="best" departSpeed="max">
        <route edges="E11 E5 E6 E13"/>
    </vehicle>
    <vehicle id="motorcycle51" type="motorcycle_motorcycle" depart="470.06" departLane="best" departSpeed="max">
        <route edges="E18 E0 E2 E20"/>
    </vehicle>
    <vehicle id="motorcycle52" type="motorcycle_motorcycle" depart="479.28" departLane="best" departSpeed="max">
        <route edges="E12 E7"/>
    </vehicle>
    <vehicle id="motorcycle53" type="motorcycle_motorcycle" depart="488.50" departLane="best" departSpeed="max">
        <route edges="E12 E7 E2 E22"/>
    </vehicle>
    <vehicle id="motorcycle54" type="motorcycle_motorcycle" depart="497.71" departLane="best" departSpeed="max">
        <route edges="E12 E7 E4 E10"/>
    </vehicle>
    <vehicle id="motorcycle55" type="motorcycle_motorcycle" depart="506.93" departLane="best" departSpeed="max">
        <route edges="E9 E0 E2 E20"/>
    </vehicle>
    <vehicle id="motorcycle56" type="motorcycle_motorcycle" depart="516.15" departLane="best" departSpeed="max">
        <route edges="E19 E7 E4"/>
    </vehicle>
    <vehicle id="motorcycle57" type="motorcycle_motorcycle" depart="525.36" departLane="best">
        <route edges="E5 E6 E13"/>
    </vehicle>
    <vehicle id="motorcycle58" type="motorcycle_motorcycle" depart="534.58" departLane="best" departSpeed="max">
        <route edges="E11 E17"/>
    </vehicle>
    <vehicle id="motorcycle59" type="motorcycle_motorcycle" depart="543.80" departLane="best" departSpeed="max">
        <route edges="E19 E7 E4 E17"/>
    </vehicle>
    <vehicle id="motorcycle60" type="motorcycle_motorcycle" depart="553.02" departLane="best" departSpeed="max">
        <route edges="E9 E0 E4 E10"/>
    </vehicle>
    <vehicle id="motorcycle61" type="motorcycle_motorcycle" depart="562.23" departLane="best" departSpeed="max">
        <route edges="E18 E15"/>
    </vehicle>
    <vehicle id="motorcycle62" type="motorcycle_motorcycle" depart="571.45" departLane="best">
        <route edges="E6 E13"/>
    </vehicle>
    <vehicle id="motorcycle63" type="motorcycle_motorcycle" depart="580.67" departLane="best" departSpeed="max">
        <route edges="E12 E7 E4 E17"/>
    </vehicle>
    <vehicle id="motorcycle64" type="motorcycle_motorcycle" depart="589.88" departLane="best" departSpeed="max">
        <route edges="E19 E14"/>
    </vehicle>
    <vehicle id="motorcycle65" type="motorcycle_motorcycle" depart="599.10" departLane="best" departSpeed="max">
        <route edges="E12 E7 E1 E8"/>
    </vehicle>
    <vehicle id="motorcycle66" type="motorcycle_motorcycle" depart="608.32" departLane="best" departSpeed="max">
        <route edges="E21 E3 E1"/>
    </vehicle>
    <vehicle id="motorcycle67" type="motorcycle_motorcycle" depart="617.53" departLane="best" departSpeed="max">
        <route edges="E9 E0 E6"/>
    </vehicle>
    <vehicle id="motorcycle68" type="motorcycle_motorcycle" depart="626.75" departLane="best" departSpeed="max">
        <route edges="E19 E13"/>
    </vehicle>
    <vehicle id="motorcycle69" type="motorcycle_motorcycle" depart="635.97" departLane="best" departSpeed="max">
        <route edges="E18 E8"/>
    </vehicle>
    <vehicle id="motorcycle70" type="motorcycle_motorcycle" depart="645.18" departLane="best" departSpeed="max">
        <route edges="E19 E7 E4 E17"/>
    </vehicle>
    <vehicle id="motorcycle71" type="motorcycle_motorcycle" depart="654.40" departLane="best" departSpeed="max">
        <route edges="E21 E3"/>
    </vehicle>
    <vehicle id="motorcycle72" type="motorcycle_motorcycle" depart="663.62" departLane="best" departSpeed="max">
        <route edges="E11 E5 E6 E14"/>
    </vehicle>
    <vehicle id="motorcycle73" type="motorcycle_motorcycle" depart="672.84" departLane="best" departSpeed="max">
        <route edges="E9 E0 E2 E20"/>
    </vehicle>
    <vehicle id="motorcycle74" type="motorcycle_motorcycle" depart="682.05" departLane="best" departSpeed="max">
        <route edges="E21 E3"/>
    </vehicle>
    <vehicle id="motorcycle75" type="motorcycle_motorcycle" depart="691.27" departLane="best" departSpeed="max">
        <route edges="E11 E5 E1 E8"/>
    </vehicle>
    <vehicle id="motorcycle76" type="motorcycle_motorcycle" depart="700.49" departLane="best" departSpeed="max">
        <route edges="E21 E22"/>
    </vehicle>
    <vehicle id="motorcycle77" type="motorcycle_motorcycle" depart="709.70" departLane="best" departSpeed="max">
        <route edges="E12 E7 E4 E10"/>
    </vehicle>
    <vehicle id="motorcycle78" type="motorcycle_motorcycle" depart="718.92" departLane="best" departSpeed="max">
        <route edges="E19 E7 E2 E20"/>
    </vehicle>
    <vehicle id="motorcycle79" type="motorcycle_motorcycle" depart="728.14" departLane="best" departSpeed="max">
        <route edges="E12 E7 E1 E15"/>
    </vehicle>
    <vehicle id="motorcycle80" type="motorcycle_motorcycle" depart="737.35" departLane="best" departSpeed="max">
        <route edges="E23 E3 E6 E14"/>
    </vehicle>
    <vehicle id="motorcycle81" type="motorcycle_motorcycle" depart="746.57" departLane="best" departSpeed="max">
        <route edges="E16 E5 E1 E8"/>
    </vehicle>
    <vehicle id="motorcycle82" type="motorcycle_motorcycle" depart="755.79" departLane="best">
        <route edges="E7"/>
    </vehicle>
    <vehicle id="motorcycle83" type="motorcycle_motorcycle" depart="765.00" departLane="best" departSpeed="max">
        <route edges="E18 E0 E4 E10"/>
    </vehicle>
    <vehicle id="motorcycle84" type="motorcycle_motorcycle" depart="774.22" departLane="best" departSpeed="max">
        <route edges="E21 E3 E1 E8"/>
    </vehicle>
    <vehicle id="motorcycle85" type="motorcycle_motorcycle" depart="783.44" departLane="best">
        <route edges="E5 E6 E14"/>
    </vehicle>
    <vehicle id="motorcycle86" type="motorcycle_motorcycle" depart="792.66" departLane="best" departSpeed="max">
        <route edges="E23 E3 E1 E8"/>
    </vehicle>
    <vehicle id="motorcycle87" type="motorcycle_motorcycle" depart="801.87" departLane="best" departSpeed="max">
        <route edges="E11 E5 E2 E20"/>
    </vehicle>
    <vehicle id="motorcycle88" type="motorcycle_motorcycle" depart="811.09" departLane="best" departSpeed="max">
        <route edges="E16 E5 E2 E20"/>
    </vehicle>
    <vehicle id="motorcycle89" type="motorcycle_motorcycle" depart="820.31" departLane="best">
        <route edges="E3 E6 E13"/>
    </vehicle>
    <vehicle id="motorcycle90" type="motorcycle_motorcycle" depart="829.52" departLane="best" departSpeed="max">
        <route edges="E23 E3 E6 E14"/>
    </vehicle>
    <vehicle id="motorcycle91" type="motorcycle_motorcycle" depart="838.74" departLane="best" departSpeed="max">
        <route edges="E19 E7"/>
    </vehicle>
    <vehicle id="motorcycle92" type="motorcycle_motorcycle" depart="847.96" departLane="best" departSpeed="max">
        <route edges="E19 E14"/>
    </vehicle>
    <vehicle id="motorcycle93" type="motorcycle_motorcycle" depart="857.17" departLane="best">
        <route edges="E0 E4"/>
    </vehicle>
    <vehicle id="motorcycle94" type="motorcycle_motorcycle" depart="866.39" departLane="best" departSpeed="max">
        <route edges="E23 E3 E6 E14"/>
    </vehicle>
    <vehicle id="motorcycle95" type="motorcycle_motorcycle" depart="875.61" departLane="best">
        <route edges="E7 E2 E20"/>
    </vehicle>
    <vehicle id="motorcycle96" type="motorcycle_motorcycle" depart="884.82" departLane="best">
        <route edges="E5 E6"/>
    </vehicle>
    <vehicle id="motorcycle97" type="motorcycle_motorcycle" depart="894.04" departLane="best" departSpeed="max">
        <route edges="E12 E7 E4 E10"/>
    </vehicle>
    <vehicle id="motorcycle98" type="motorcycle_motorcycle" depart="903.26" departLane="best" departSpeed="max">
        <route edges="E18 E0 E2 E20"/>
    </vehicle>
    <vehicle id="motorcycle99" type="motorcycle_motorcycle" depart="912.48" departLane="best" departSpeed="max">
        <route edges="E11 E5 E1 E8"/>
    </vehicle>
    <vehicle id="motorcycle100" type="motorcycle_motorcycle" depart="921.69" departLane="best" departSpeed="max">
        <route edges="E16 E5 E1 E8"/>
    </vehicle>
    <vehicle id="motorcycle101" type="motorcycle_motorcycle" depart="930.91" departLane="best">
        <route edges="E5 E6"/>
    </vehicle>
    <vehicle id="motorcycle102" type="motorcycle_motorcycle" depart="940.13" departLane="best">
        <route edges="E5 E6 E14"/>
    </vehicle>
    <vehicle id="motorcycle103" type="motorcycle_motorcycle" depart="949.34" departLane="best">
        <route edges="E4 E10"/>
    </vehicle>
    <vehicle id="motorcycle104" type="motorcycle_motorcycle" depart="958.56" departLane="best">
        <route edges="E6"/>
    </vehicle>
    <vehicle id="motorcycle105" type="motorcycle_motorcycle" depart="967.78" departLane="best" departSpeed="max">
        <route edges="E19 E14"/>
    </vehicle>
    <vehicle id="motorcycle106" type="motorcycle_motorcycle" depart="976.99" departLane="best">
        <route edges="E5 E6 E13"/>
    </vehicle>
    <vehicle id="motorcycle107" type="motorcycle_motorcycle" depart="986.21" departLane="best">
        <route edges="E0 E6 E13"/>
    </vehicle>
    <vehicle id="motorcycle108" type="motorcycle_motorcycle" depart="995.43" departLane="best" departSpeed="max">
        <route edges="E16 E5 E6"/>
    </vehicle>
    <vehicle id="motorcycle109" type="motorcycle_motorcycle" depart="1004.64" departLane="best" departSpeed="max">
        <route edges="E9 E0 E6 E14"/>
    </vehicle>
    <vehicle id="motorcycle110" type="motorcycle_motorcycle" depart="1013.86" departLane="best" departSpeed="max">
        <route edges="E23 E3 E1 E15"/>
    </vehicle>
    <vehicle id="motorcycle111" type="motorcycle_motorcycle" depart="1023.08" departLane="best" departSpeed="max">
        <route edges="E9 E0 E2"/>
    </vehicle>
    <vehicle id="motorcycle112" type="motorcycle_motorcycle" depart="1032.30" departLane="best" departSpeed="max">
        <route edges="E9 E0 E4 E10"/>
    </vehicle>
    <vehicle id="motorcycle113" type="motorcycle_motorcycle" depart="1041.51" departLane="best" departSpeed="max">
        <route edges="E9 E0 E6 E13"/>
    </vehicle>
    <vehicle id="motorcycle114" type="motorcycle_motorcycle" depart="1050.73" departLane="best" departSpeed="max">
        <route edges="E9 E0 E6 E14"/>
    </vehicle>
    <vehicle id="motorcycle115" type="motorcycle_motorcycle" depart="1059.95" departLane="best" departSpeed="max">
        <route edges="E11 E17"/>
    </vehicle>
    <vehicle id="motorcycle116" type="motorcycle_motorcycle" depart="1069.16" departLane="best">
        <route edges="E3 E6 E14"/>
    </vehicle>
    <vehicle id="motorcycle117" type="motorcycle_motorcycle" depart="1078.38" departLane="best" departSpeed="max">
        <route edges="E18 E0 E2 E20"/>
    </vehicle>
    <vehicle id="motorcycle118" type="motorcycle_motorcycle" depart="1087.60" departLane="best" departSpeed="max">
        <route edges="E23 E3 E6 E14"/>
    </vehicle>
    <vehicle id="motorcycle119" type="motorcycle_motorcycle" depart="1096.81" departLane="best" departSpeed="max">
        <route edges="E16 E5 E6"/>
    </vehicle>
    <vehicle id="motorcycle120" type="motorcycle_motorcycle" depart="1106.03" departLane="best">
        <route edges="E3 E6 E14"/>
    </vehicle>
    <vehicle id="motorcycle121" type="motorcycle_motorcycle" depart="1115.25" departLane="best" departSpeed="max">
        <route edges="E16 E5 E1 E15"/>
    </vehicle>
    <vehicle id="motorcycle122" type="motorcycle_motorcycle" depart="1124.46" departLane="best" departSpeed="max">
        <route edges="E18 E0 E6 E14"/>
    </vehicle>
    <vehicle id="motorcycle123" type="motorcycle_motorcycle" depart="1133.68" departLane="best" departSpeed="max">
        <route edges="E11 E17"/>
    </vehicle>
    <vehicle id="motorcycle124" type="motorcycle_motorcycle" depart="1142.90" departLane="best" departSpeed="max">
        <route edges="E9 E0 E2 E22"/>
    </vehicle>
    <vehicle id="motorcycle125" type="motorcycle_motorcycle" depart="1152.12" departLane="best">
        <route edges="E7 E2 E20"/>
    </vehicle>
    <vehicle id="motorcycle126" type="motorcycle_motorcycle" depart="1161.33" departLane="best" departSpeed="max">
        <route edges="E16 E5 E2 E20"/>
    </vehicle>
    <vehicle id="motorcycle127" type="motorcycle_motorcycle" depart="1170.55" departLane="best">
        <route edges="E0 E6 E14"/>
    </vehicle>
    <vehicle id="motorcycle128" type="motorcycle_motorcycle" depart="1179.77" departLane="best" departSpeed="max">
        <route edges="E19 E7 E2 E20"/>
    </vehicle>
    <vehicle id="motorcycle129" type="motorcycle_motorcycle" depart="1188.98" departLane="best" departSpeed="max">
        <route edges="E23 E3 E4 E17"/>
    </vehicle>
    <vehicle id="motorcycle130" type="motorcycle_motorcycle" depart="1198.20" departLane="best" departSpeed="max">
        <route edges="E19 E13"/>
    </vehicle>
    <vehicle id="motorcycle131" type="motorcycle_motorcycle" depart="1207.42" departLane="best" departSpeed="max">
        <route edges="E19 E7"/>
    </vehicle>
    <vehicle id="motorcycle132" type="motorcycle_motorcycle" depart="1216.63" departLane="best">
        <route edges="E5 E6 E13"/>
    </vehicle>
    <vehicle id="motorcycle133" type="motorcycle_motorcycle" depart="1225.85" departLane="best" departSpeed="max">
        <route edges="E11 E5 E2"/>
    </vehicle>
    <vehicle id="motorcycle134" type="motorcycle_motorcycle" depart="1235.07" departLane="best" departSpeed="max">
        <route edges="E23 E3 E1 E15"/>
    </vehicle>
    <vehicle id="motorcycle135" type="motorcycle_motorcycle" depart="1244.28" departLane="best" departSpeed="max">
        <route edges="E23 E3 E6 E13"/>
    </vehicle>
    <vehicle id="motorcycle136" type="motorcycle_motorcycle" depart="1253.50" departLane="best" departSpeed="max">
        <route edges="E12 E7 E4 E17"/>
    </vehicle>
    <vehicle id="motorcycle137" type="motorcycle_motorcycle" depart="1262.72" departLane="best" departSpeed="max">
        <route edges="E18 E0 E2 E22"/>
    </vehicle>
    <vehicle id="motorcycle138" type="motorcycle_motorcycle" depart="1271.93" departLane="best" departSpeed="max">
        <route edges="E12 E7 E2 E22"/>
    </vehicle>
    <vehicle id="motorcycle139" type="motorcycle_motorcycle" depart="1281.15" departLane="best" departSpeed="max">
        <route edges="E19 E13"/>
    </vehicle>
    <vehicle id="motorcycle140" type="motorcycle_motorcycle" depart="1290.37" departLane="best">
        <route edges="E4"/>
    </vehicle>
    <vehicle id="motorcycle141" type="motorcycle_motorcycle" depart="1299.59" departLane="best" departSpeed="max">
        <route edges="E11 E17"/>
    </vehicle>
    <vehicle id="motorcycle142" type="motorcycle_motorcycle" depart="1308.80" departLane="best" departSpeed="max">
        <route edges="E12 E7 E1 E8"/>
    </vehicle>
    <vehicle id="motorcycle143" type="motorcycle_motorcycle" depart="1318.02" departLane="best" departSpeed="max">
        <route edges="E23 E3 E1 E8"/>
    </vehicle>
    <vehicle id="motorcycle144" type="motorcycle_motorcycle" depart="1327.24" departLane="best" departSpeed="max">
        <route edges="E21 E3 E1 E8"/>
    </vehicle>
    <vehicle id="motorcycle145" type="motorcycle_motorcycle" depart="1336.45" departLane="best">
        <route edges="E7 E2 E20"/>
    </vehicle>
    <vehicle id="motorcycle146" type="motorcycle_motorcycle" depart="1345.67" departLane="best">
        <route edges="E5 E2 E20"/>
    </vehicle>
    <vehicle id="motorcycle147" type="motorcycle_motorcycle" depart="1354.89" departLane="best" departSpeed="max">
        <route edges="E19 E14"/>
    </vehicle>
    <vehicle id="motorcycle148" type="motorcycle_motorcycle" depart="1364.10" departLane="best" departSpeed="max">
        <route edges="E12 E7 E2 E22"/>
    </vehicle>
    <vehicle id="motorcycle149" type="motorcycle_motorcycle" depart="1373.32" departLane="best" departSpeed="max">
        <route edges="E23 E3 E6 E14"/>
    </vehicle>
    <vehicle id="motorcycle150" type="motorcycle_motorcycle" depart="1382.54" departLane="best" departSpeed="max">
        <route edges="E16 E5 E6 E14"/>
    </vehicle>
    <vehicle id="motorcycle151" type="motorcycle_motorcycle" depart="1391.75" departLane="best" departSpeed="max">
        <route edges="E12 E7 E2 E22"/>
    </vehicle>
    <vehicle id="motorcycle152" type="motorcycle_motorcycle" depart="1400.97" departLane="best" departSpeed="max">
        <route edges="E23 E3 E1"/>
    </vehicle>
    <vehicle id="motorcycle153" type="motorcycle_motorcycle" depart="1410.19" departLane="best" departSpeed="max">
        <route edges="E18 E0 E2 E20"/>
    </vehicle>
    <vehicle id="motorcycle154" type="motorcycle_motorcycle" depart="1419.41" departLane="best" departSpeed="max">
        <route edges="E18 E0 E6 E13"/>
    </vehicle>
    <vehicle id="motorcycle155" type="motorcycle_motorcycle" depart="1428.62" departLane="best" departSpeed="max">
        <route edges="E19 E7"/>
    </vehicle>
    <vehicle id="motorcycle156" type="motorcycle_motorcycle" depart="1437.84" departLane="best" departSpeed="max">
        <route edges="E21 E22"/>
    </vehicle>
    <vehicle id="motorcycle157" type="motorcycle_motorcycle" depart="1447.06" departLane="best" departSpeed="max">
        <route edges="E18 E0"/>
    </vehicle>
    <vehicle id="motorcycle158" type="motorcycle_motorcycle" depart="1456.27" departLane="best" departSpeed="max">
        <route edges="E18 E0 E4"/>
    </vehicle>
    <vehicle id="motorcycle159" type="motorcycle_motorcycle" depart="1465.49" departLane="best" departSpeed="max">
        <route edges="E18 E0 E2 E22"/>
    </vehicle>
    <vehicle id="motorcycle160" type="motorcycle_motorcycle" depart="1474.71" departLane="best" departSpeed="max">
        <route edges="E18 E0 E4 E10"/>
    </vehicle>
    <vehicle id="motorcycle161" type="motorcycle_motorcycle" depart="1483.92" departLane="best" departSpeed="max">
        <route edges="E19 E7 E4 E10"/>
    </vehicle>
    <vehicle id="motorcycle162" type="motorcycle_motorcycle" depart="1493.14" departLane="best" departSpeed="max">
        <route edges="E18 E0 E2 E20"/>
    </vehicle>
    <vehicle id="motorcycle163" type="motorcycle_motorcycle" depart="1502.36" departLane="best">
        <route edges="E0 E2 E22"/>
    </vehicle>
    <vehicle id="motorcycle164" type="motorcycle_motorcycle" depart="1511.57" departLane="best" departSpeed="max">
        <route edges="E11 E17"/>
    </vehicle>
    <vehicle id="motorcycle165" type="motorcycle_motorcycle" depart="1520.79" departLane="best">
        <route edges="E1 E15"/>
    </vehicle>
    <vehicle id="motorcycle166" type="motorcycle_motorcycle" depart="1530.01" departLane="best" departSpeed="max">
        <route edges="E12 E14"/>
    </vehicle>
    <vehicle id="motorcycle167" type="motorcycle_motorcycle" depart="1539.23" departLane="best" departSpeed="max">
        <route edges="E16 E5 E1"/>
    </vehicle>
    <vehicle id="motorcycle168" type="motorcycle_motorcycle" depart="1548.44" departLane="best">
        <route edges="E0 E2"/>
    </vehicle>
    <vehicle id="motorcycle169" type="motorcycle_motorcycle" depart="1557.66" departLane="best" departSpeed="max">
        <route edges="E9 E15"/>
    </vehicle>
    <vehicle id="motorcycle170" type="motorcycle_motorcycle" depart="1566.88" departLane="best" departSpeed="max">
        <route edges="E23 E3 E4"/>
    </vehicle>
    <vehicle id="motorcycle171" type="motorcycle_motorcycle" depart="1576.09" departLane="best" departSpeed="max">
        <route edges="E23 E3 E4"/>
    </vehicle>
    <vehicle id="motorcycle172" type="motorcycle_motorcycle" depart="1585.31" departLane="best" departSpeed="max">
        <route edges="E9 E0 E6 E13"/>
    </vehicle>
    <vehicle id="motorcycle173" type="motorcycle_motorcycle" depart="1594.53" departLane="best">
        <route edges="E0 E4 E10"/>
    </vehicle>