<?xml version="1.0" encoding="UTF-8"?>

<!-- generated on 2025-07-03 17:54:25.133134 by randomTrips.py v1_23_1+0000-676720d13f6
<configuration>
    <net-file value="osm.net.xml.gz"/>
    <output-trip-file value="osm.passenger.trips.xml"/>
    <route-file value="osm.passenger.rou.xml"/>
    <prefix value="veh"/>
    <trip-attributes value="departLane=&quot;best&quot;"/>
    <fringe-start-attributes value="departSpeed=&quot;max&quot;"/>
    <vehicle-class value="passenger"/>
    <lanes value="True"/>
    <fringe-factor value="5"/>
    <allow-fringe.min-length value="10000.0"/>
    <edge-permission value="passenger"/>
    <via-edge-types value="highway.motorway,highway.motorway_link,highway.trunk_link,highway.primary_link,highway.secondary_link,highway.tertiary_link"/>
    <min-distance value="300.0"/>
    <min-distance.fringe value="100.0"/>
    <remove-loops value="True"/>
    <validate value="True"/>
    <insertion-density value="120.0"/>
</configuration>
-->

<!-- generated on 2025-07-03 17:54:25 by Eclipse SUMO duarouter Version 1.23.1
<duarouterConfiguration xmlns:xsi="http://www.w3.org/2001/XMLSchema-instance" xsi:noNamespaceSchemaLocation="http://sumo.dlr.de/xsd/duarouterConfiguration.xsd">

    <input>
        <net-file value="osm.net.xml.gz"/>
        <route-files value="osm.passenger.trips.xml"/>
    </input>

    <output>
        <output-file value="osm.passenger.rou.xml"/>
        <alternatives-output value="NUL"/>
    </output>

    <processing>
        <remove-loops value="true"/>
    </processing>

    <time>
        <begin value="0.0"/>
        <end value="3600.0"/>
    </time>

    <report>
        <no-warnings value="true"/>
        <ignore-errors value="true"/>
        <no-step-log value="true"/>
    </report>

</duarouterConfiguration>
-->

<routes xmlns:xsi="http://www.w3.org/2001/XMLSchema-instance" xsi:noNamespaceSchemaLocation="http://sumo.dlr.de/xsd/routes_file.xsd">
    <vType id="veh_passenger" vClass="passenger"/>
    <vehicle id="veh0" type="veh_passenger" depart="0.00" departLane="best">
        <route edges="E7 E4 E10"/>
    </vehicle>
    <vehicle id="veh1" type="veh_passenger" depart="3.07" departLane="best" departSpeed="max">
        <route edges="E12 E7 E4 E17"/>
    </vehicle>
    <vehicle id="veh2" type="veh_passenger" depart="6.14" departLane="best">
        <route edges="E0 E6 E13"/>
    </vehicle>
    <vehicle id="veh3" type="veh_passenger" depart="9.22" departLane="best" departSpeed="max">
        <route edges="E12 E7 E2 E20"/>
    </vehicle>
    <vehicle id="veh4" type="veh_passenger" depart="12.29" departLane="best" departSpeed="max">
        <route edges="E9 E0 E6 E14"/>
    </vehicle>
    <vehicle id="veh5" type="veh_passenger" depart="15.36" departLane="best" departSpeed="max">
        <route edges="E11 E5 E6 E13"/>
    </vehicle>
    <vehicle id="veh6" type="veh_passenger" depart="18.43" departLane="best" departSpeed="max">
        <route edges="E21 E3 E1 E15"/>
    </vehicle>
    <vehicle id="veh7" type="veh_passenger" depart="21.51" departLane="best" departSpeed="max">
        <route edges="E18 E0 E6 E13"/>
    </vehicle>
    <vehicle id="veh8" type="veh_passenger" depart="24.58" departLane="best" departSpeed="max">
        <route edges="E16 E5 E1 E8"/>
    </vehicle>
    <vehicle id="veh9" type="veh_passenger" depart="27.65" departLane="best" departSpeed="max">
        <route edges="E12 E7 E2 E22"/>
    </vehicle>
    <vehicle id="veh10" type="veh_passenger" depart="30.72" departLane="best" departSpeed="max">
        <route edges="E9 E0 E2 E20"/>
    </vehicle>
    <vehicle id="veh11" type="veh_passenger" depart="33.80" departLane="best" departSpeed="max">
        <route edges="E12 E7 E1"/>
    </vehicle>
    <vehicle id="veh12" type="veh_passenger" depart="36.87" departLane="best" departSpeed="max">
        <route edges="E12 E7 E1 E8"/>
    </vehicle>
    <vehicle id="veh13" type="veh_passenger" depart="39.94" departLane="best" departSpeed="max">
        <route edges="E21 E3 E1 E15"/>
    </vehicle>
    <vehicle id="veh14" type="veh_passenger" depart="43.01" departLane="best" departSpeed="max">
        <route edges="E9 E0 E4 E17"/>
    </vehicle>
    <vehicle id="veh15" type="veh_passenger" depart="46.08" departLane="best" departSpeed="max">
        <route edges="E18 E0 E6 E13"/>
    </vehicle>
    <vehicle id="veh16" type="veh_passenger" depart="49.16" departLane="best" departSpeed="max">
        <route edges="E9 E0 E4 E17"/>
    </vehicle>
    <vehicle id="veh17" type="veh_passenger" depart="52.23" departLane="best" departSpeed="max">
        <route edges="E11 E5 E1"/>
    </vehicle>
    <vehicle id="veh18" type="veh_passenger" depart="55.30" departLane="best" departSpeed="max">
        <route edges="E11 E5 E2 E20"/>
    </vehicle>
    <vehicle id="veh19" type="veh_passenger" depart="58.37" departLane="best" departSpeed="max">
        <route edges="E11 E5 E1 E15"/>
    </vehicle>
    <vehicle id="veh20" type="veh_passenger" depart="61.45" departLane="best" departSpeed="max">
        <route edges="E9 E0 E4 E17"/>
    </vehicle>
    <vehicle id="veh21" type="veh_passenger" depart="64.52" departLane="best" departSpeed="max">
        <route edges="E16 E5 E2 E20"/>
    </vehicle>
    <vehicle id="veh22" type="veh_passenger" depart="67.59" departLane="best" departSpeed="max">
        <route edges="E11 E5 E1 E15"/>
    </vehicle>
    <vehicle id="veh23" type="veh_passenger" depart="70.66" departLane="best" departSpeed="max">
        <route edges="E16 E5 E2 E20"/>
    </vehicle>
    <vehicle id="veh24" type="veh_passenger" depart="73.74" departLane="best" departSpeed="max">
        <route edges="E21 E3 E4 E10"/>
    </vehicle>
    <vehicle id="veh25" type="veh_passenger" depart="76.81" departLane="best">
        <route edges="E0 E6 E14"/>
    </vehicle>
    <vehicle id="veh26" type="veh_passenger" depart="79.88" departLane="best" departSpeed="max">
        <route edges="E16 E5 E1"/>
    </vehicle>
    <vehicle id="veh27" type="veh_passenger" depart="82.95" departLane="best">
        <route edges="E3 E4 E10"/>
    </vehicle>
    <vehicle id="veh28" type="veh_passenger" depart="86.02" departLane="best" departSpeed="max">
        <route edges="E19 E7 E2"/>
    </vehicle>
    <vehicle id="veh29" type="veh_passenger" depart="89.10" departLane="best" departSpeed="max">
        <route edges="E18 E0 E6 E13"/>
    </vehicle>
    <vehicle id="veh30" type="veh_passenger" depart="92.17" departLane="best" departSpeed="max">
        <route edges="E9 E0 E2 E20"/>
    </vehicle>
    <vehicle id="veh31" type="veh_passenger" depart="95.24" departLane="best" departSpeed="max">
        <route edges="E19 E7 E4 E17"/>
    </vehicle>
    <vehicle id="veh32" type="veh_passenger" depart="98.31" departLane="best" departSpeed="max">
        <route edges="E11 E5 E6 E13"/>
    </vehicle>
    <vehicle id="veh33" type="veh_passenger" depart="101.39" departLane="best" departSpeed="max">
        <route edges="E16 E5 E2 E20"/>
    </vehicle>
    <vehicle id="veh34" type="veh_passenger" depart="104.46" departLane="best" departSpeed="max">
        <route edges="E11 E5 E2 E20"/>
    </vehicle>
    <vehicle id="veh35" type="veh_passenger" depart="107.53" departLane="best" departSpeed="max">
        <route edges="E12 E7 E2 E22"/>
    </vehicle>
    <vehicle id="veh36" type="veh_passenger" depart="110.60" departLane="best" departSpeed="max">
        <route edges="E12 E7 E4 E10"/>
    </vehicle>
    <vehicle id="veh37" type="veh_passenger" depart="113.68" departLane="best" departSpeed="max">
        <route edges="E9 E0 E2 E20"/>
    </vehicle>
    <vehicle id="veh38" type="veh_passenger" depart="116.75" departLane="best" departSpeed="max">
        <route edges="E19 E7 E4"/>
    </vehicle>
    <vehicle id="veh39" type="veh_passenger" depart="119.82" departLane="best" departSpeed="max">
        <route edges="E11 E5 E1 E15"/>
    </vehicle>
    <vehicle id="veh40" type="veh_passenger" depart="122.89" departLane="best" departSpeed="max">
        <route edges="E9 E0 E4 E10"/>
    </vehicle>
    <vehicle id="veh41" type="veh_passenger" depart="125.96" departLane="best" departSpeed="max">
        <route edges="E18 E0 E6 E14"/>
    </vehicle>
    <vehicle id="veh42" type="veh_passenger" depart="129.04" departLane="best" departSpeed="max">
        <route edges="E12 E7 E4 E17"/>
    </vehicle>
    <vehicle id="veh43" type="veh_passenger" depart="132.11" departLane="best" departSpeed="max">
        <route edges="E18 E0 E6 E14"/>
    </vehicle>
    <vehicle id="veh44" type="veh_passenger" depart="135.18" departLane="best" departSpeed="max">
        <route edges="E12 E7 E1 E8"/>
    </vehicle>
    <vehicle id="veh45" type="veh_passenger" depart="138.25" departLane="best" departSpeed="max">
        <route edges="E9 E0 E2 E20"/>
    </vehicle>
    <vehicle id="veh46" type="veh_passenger" depart="141.33" departLane="best" departSpeed="max">
        <route edges="E12 E7 E1 E8"/>
    </vehicle>
    <vehicle id="veh47" type="veh_passenger" depart="144.40" departLane="best" departSpeed="max">
        <route edges="E11 E5 E6 E13"/>
    </vehicle>
    <vehicle id="veh48" type="veh_passenger" depart="147.47" departLane="best" departSpeed="max">
        <route edges="E12 E7 E4 E10"/>
    </vehicle>
    <vehicle id="veh49" type="veh_passenger" depart="150.54" departLane="best" departSpeed="max">
        <route edges="E12 E7 E2 E22"/>
    </vehicle>
    <vehicle id="veh50" type="veh_passenger" depart="153.62" departLane="best" departSpeed="max">
        <route edges="E11 E5 E6 E13"/>
    </vehicle>
    <vehicle id="veh51" type="veh_passenger" depart="156.69" departLane="best" departSpeed="max">
        <route edges="E16 E5 E1 E8"/>
    </vehicle>
    <vehicle id="veh52" type="veh_passenger" depart="159.76" departLane="best" departSpeed="max">
        <route edges="E18 E0 E6 E13"/>
    </vehicle>
    <vehicle id="veh53" type="veh_passenger" depart="162.83" departLane="best">
        <route edges="E5 E2 E22"/>
    </vehicle>
    <vehicle id="veh54" type="veh_passenger" depart="165.90" departLane="best" departSpeed="max">
        <route edges="E21 E3 E1 E8"/>
    </vehicle>
    <vehicle id="veh55" type="veh_passenger" depart="168.98" departLane="best" departSpeed="max">
        <route edges="E23 E3 E1 E8"/>
    </vehicle>
    <vehicle id="veh56" type="veh_passenger" depart="172.05" departLane="best" departSpeed="max">
        <route edges="E11 E5 E2"/>
    </vehicle>
    <vehicle id="veh57" type="veh_passenger" depart="175.12" departLane="best" departSpeed="max">
        <route edges="E16 E5 E2 E20"/>
    </vehicle>
    <vehicle id="veh58" type="veh_passenger" depart="178.19" departLane="best" departSpeed="max">
        <route edges="E23 E3 E6 E13"/>
    </vehicle>
    <vehicle id="veh59" type="veh_passenger" depart="181.27" departLane="best" departSpeed="max">
        <route edges="E21 E3 E6 E14"/>
    </vehicle>
    <vehicle id="veh60" type="veh_passenger" depart="184.34" departLane="best" departSpeed="max">
        <route edges="E18 E0 E6 E14"/>
    </vehicle>
    <vehicle id="veh61" type="veh_passenger" depart="187.41" departLane="best" departSpeed="max">
        <route edges="E21 E3 E6 E14"/>
    </vehicle>
    <vehicle id="veh62" type="veh_passenger" depart="190.48" departLane="best" departSpeed="max">
        <route edges="E12 E7 E4 E10"/>
    </vehicle>
    <vehicle id="veh63" type="veh_passenger" depart="193.56" departLane="best" departSpeed="max">
        <route edges="E11 E5 E1 E8"/>
    </vehicle>
    <vehicle id="veh64" type="veh_passenger" depart="196.63" departLane="best" departSpeed="max">
        <route edges="E16 E5 E1 E8"/>
    </vehicle>
    <vehicle id="veh65" type="veh_passenger" depart="199.70" departLane="best">
        <route edges="E0 E6 E13"/>
    </vehicle>
    <vehicle id="veh66" type="veh_passenger" depart="202.77" departLane="best" departSpeed="max">
        <route edges="E9 E0 E6 E14"/>
    </vehicle>
    <vehicle id="veh67" type="veh_passenger" depart="205.84" departLane="best" departSpeed="max">
        <route edges="E21 E3 E1 E15"/>
    </vehicle>
    <vehicle id="veh68" type="veh_passenger" depart="208.92" departLane="best" departSpeed="max">
        <route edges="E9 E0 E4 E10"/>
    </vehicle>
    <vehicle id="veh69" type="veh_passenger" depart="211.99" departLane="best" departSpeed="max">
        <route edges="E9 E0 E6 E13"/>
    </vehicle>
    <vehicle id="veh70" type="veh_passenger" depart="215.06" departLane="best" departSpeed="max">
        <route edges="E9 E0 E6 E14"/>
    </vehicle>
    <vehicle id="veh71" type="veh_passenger" depart="218.13" departLane="best" departSpeed="max">
        <route edges="E11 E5 E1 E15"/>
    </vehicle>
    <vehicle id="veh72" type="veh_passenger" depart="221.21" departLane="best" departSpeed="max">
        <route edges="E16 E5 E2 E22"/>
    </vehicle>
    <vehicle id="veh73" type="veh_passenger" depart="224.28" departLane="best" departSpeed="max">
        <route edges="E18 E0 E4 E10"/>
    </vehicle>
    <vehicle id="veh74" type="veh_passenger" depart="227.35" departLane="best" departSpeed="max">
        <route edges="E18 E0 E6 E14"/>
    </vehicle>
    <vehicle id="veh75" type="veh_passenger" depart="230.42" departLane="best" departSpeed="max">
        <route edges="E11 E5 E1 E15"/>
    </vehicle>
    <vehicle id="veh76" type="veh_passenger" depart="233.50" departLane="best">
        <route edges="E7 E2 E20"/>
    </vehicle>
    <vehicle id="veh77" type="veh_passenger" depart="236.57" departLane="best">
        <route edges="E0 E6 E14"/>
    </vehicle>
    <vehicle id="veh78" type="veh_passenger" depart="239.64" departLane="best" departSpeed="max">
        <route edges="E21 E3 E6 E14"/>
    </vehicle>
    <vehicle id="veh79" type="veh_passenger" depart="242.71" departLane="best" departSpeed="max">
        <route edges="E23 E3 E6 E13"/>
    </vehicle>
    <vehicle id="veh80" type="veh_passenger" depart="245.78" departLane="best" departSpeed="max">
        <route edges="E12 E7 E4 E17"/>
    </vehicle>
    <vehicle id="veh81" type="veh_passenger" depart="248.86" departLane="best" departSpeed="max">
        <route edges="E12 E7 E2 E22"/>
    </vehicle>
    <vehicle id="veh82" type="veh_passenger" depart="251.93" departLane="best" departSpeed="max">
        <route edges="E11 E5 E1 E15"/>
    </vehicle>
    <vehicle id="veh83" type="veh_passenger" depart="255.00" departLane="best" departSpeed="max">
        <route edges="E12 E7 E1 E8"/>
    </vehicle>
    <vehicle id="veh84" type="veh_passenger" depart="258.07" departLane="best" departSpeed="max">
        <route edges="E19 E7 E4"/>
    </vehicle>
    <vehicle id="veh85" type="veh_passenger" depart="261.15" departLane="best" departSpeed="max">
        <route edges="E23 E3 E1 E8"/>
    </vehicle>
    <vehicle id="veh86" type="veh_passenger" depart="264.22" departLane="best" departSpeed="max">
        <route edges="E21 E3 E1 E8"/>
    </vehicle>
    <vehicle id="veh87" type="veh_passenger" depart="267.29" departLane="best">
        <route edges="E7 E2 E20"/>
    </vehicle>
    <vehicle id="veh88" type="veh_passenger" depart="270.36" departLane="best">
        <route edges="E7 E2 E22"/>
    </vehicle>
    <vehicle id="veh89" type="veh_passenger" depart="273.44" departLane="best" departSpeed="max">
        <route edges="E12 E7 E2 E20"/>
    </vehicle>
    <vehicle id="veh90" type="veh_passenger" depart="276.51" departLane="best" departSpeed="max">
        <route edges="E21 E3 E6 E14"/>
    </vehicle>
    <vehicle id="veh91" type="veh_passenger" depart="279.58" departLane="best" departSpeed="max">
        <route edges="E12 E7 E2 E22"/>
    </vehicle>
    <vehicle id="veh92" type="veh_passenger" depart="282.65" departLane="best" departSpeed="max">
        <route edges="E18 E0 E6 E13"/>
    </vehicle>
    <vehicle id="veh93" type="veh_passenger" depart="285.72" departLane="best" departSpeed="max">
        <route edges="E16 E5 E2 E22"/>
    </vehicle>
    <vehicle id="veh94" type="veh_passenger" depart="288.80" departLane="best" departSpeed="max">
        <route edges="E18 E0 E6 E13"/>
    </vehicle>
    <vehicle id="veh95" type="veh_passenger" depart="291.87" departLane="best" departSpeed="max">
        <route edges="E19 E7 E4 E10"/>
    </vehicle>
    <vehicle id="veh96" type="veh_passenger" depart="294.94" departLane="best" departSpeed="max">
        <route edges="E9 E0 E6 E13"/>
    </vehicle>
    <vehicle id="veh97" type="veh_passenger" depart="298.01" departLane="best">
        <route edges="E0 E4 E10"/>
    </vehicle>
    <vehicle id="veh98" type="veh_passenger" depart="301.09" departLane="best" departSpeed="max">
        <route edges="E11 E5 E2 E22"/>
    </vehicle>
    <vehicle id="veh99" type="veh_passenger" depart="304.16" departLane="best" departSpeed="max">
        <route edges="E21 E3 E6 E13"/>
    </vehicle>
    <vehicle id="veh100" type="veh_passenger" depart="307.23" departLane="best" departSpeed="max">
        <route edges="E12 E7 E2 E20"/>
    </vehicle>
    <vehicle id="veh101" type="veh_passenger" depart="310.30" departLane="best">
        <route edges="E5 E1 E8"/>
    </vehicle>
    <vehicle id="veh102" type="veh_passenger" depart="313.38" departLane="best" departSpeed="max">
        <route edges="E16 E5 E2 E22"/>
    </vehicle>
    <vehicle id="veh103" type="veh_passenger" depart="316.45" departLane="best" departSpeed="max">
        <route edges="E11 E5 E1 E8"/>
    </vehicle>
    <vehicle id="veh104" type="veh_passenger" depart="319.52" departLane="best" departSpeed="max">
        <route edges="E11 E5 E1 E8"/>
    </vehicle>
    <vehicle id="veh105" type="veh_passenger" depart="322.59" departLane="best" departSpeed="max">
        <route edges="E23 E3 E1 E15"/>
    </vehicle>
    <vehicle id="veh106" type="veh_passenger" depart="325.66" departLane="best" departSpeed="max">
        <route edges="E23 E3 E1 E8"/>
    </vehicle>
    <vehicle id="veh107" type="veh_passenger" depart="328.74" departLane="best" departSpeed="max">
        <route edges="E19 E7 E2 E20"/>
    </vehicle>
    <vehicle id="veh108" type="veh_passenger" depart="331.81" departLane="best" departSpeed="max">
        <route edges="E12 E7 E4"/>
    </vehicle>
    <vehicle id="veh109" type="veh_passenger" depart="334.88" departLane="best" departSpeed="max">
        <route edges="E11 E5 E2 E22"/>
    </vehicle>
    <vehicle id="veh110" type="veh_passenger" depart="337.95" departLane="best" departSpeed="max">
        <route edges="E19 E7 E4"/>
    </vehicle>
    <vehicle id="veh111" type="veh_passenger" depart="341.03" departLane="best" departSpeed="max">
        <route edges="E11 E5 E6 E13"/>
    </vehicle>
    <vehicle id="veh112" type="veh_passenger" depart="344.10" departLane="best" departSpeed="max">
        <route edges="E12 E7 E4 E10"/>
    </vehicle>
    <vehicle id="veh113" type="veh_passenger" depart="347.17" departLane="best" departSpeed="max">
        <route edges="E9 E0 E4 E17"/>
    </vehicle>
    <vehicle id="veh114" type="veh_passenger" depart="350.24" departLane="best" departSpeed="max">
        <route edges="E19 E7 E4 E17"/>
    </vehicle>
    <vehicle id="veh115" type="veh_passenger" depart="353.32" departLane="best" departSpeed="max">
        <route edges="E12 E7 E1"/>
    </vehicle>
    <vehicle id="veh116" type="veh_passenger" depart="356.39" departLane="best" departSpeed="max">
        <route edges="E9 E0 E4 E17"/>
    </vehicle>
    <vehicle id="veh117" type="veh_passenger" depart="359.46" departLane="best">
        <route edges="E5 E1 E15"/>
    </vehicle>
    <vehicle id="veh118" type="veh_passenger" depart="362.53" departLane="best" departSpeed="max">
        <route edges="E11 E5 E2 E20"/>
    </vehicle>
    <vehicle id="veh119" type="veh_passenger" depart="365.60" departLane="best" departSpeed="max">
        <route edges="E21 E3 E6 E14"/>
    </vehicle>
    <vehicle id="veh120" type="veh_passenger" depart="368.68" departLane="best" departSpeed="max">
        <route edges="E9 E0 E4 E10"/>
    </vehicle>
    <vehicle id="veh121" type="veh_passenger" depart="371.75" departLane="best" departSpeed="max">
        <route edges="E19 E7 E4 E17"/>
    </vehicle>
    <vehicle id="veh122" type="veh_passenger" depart="374.82" departLane="best" departSpeed="max">
        <route edges="E9 E0 E6 E14"/>
    </vehicle>
    <vehicle id="veh123" type="veh_passenger" depart="377.89" departLane="best" departSpeed="max">
        <route edges="E23 E3 E1 E8"/>
    </vehicle>
    <vehicle id="veh124" type="veh_passenger" depart="380.97" departLane="best" departSpeed="max">
        <route edges="E23 E3 E6 E13"/>
    </vehicle>
    <vehicle id="veh125" type="veh_passenger" depart="384.04" departLane="best" departSpeed="max">
        <route edges="E12 E7 E4 E10"/>
    </vehicle>
    <vehicle id="veh126" type="veh_passenger" depart="387.11" departLane="best">
        <route edges="E0 E4 E17"/>
    </vehicle>
    <vehicle id="veh127" type="veh_passenger" depart="390.18" departLane="best" departSpeed="max">
        <route edges="E21 E3 E6 E14"/>
    </vehicle>
    <vehicle id="veh128" type="veh_passenger" depart="393.26" departLane="best" departSpeed="max">
        <route edges="E12 E7 E2 E22"/>
    </vehicle>
    <vehicle id="veh129" type="veh_passenger" depart="396.33" departLane="best" departSpeed="max">
        <route edges="E23 E3 E1 E8"/>
    </vehicle>
    <vehicle id="veh130" type="veh_passenger" depart="399.40" departLane="best" departSpeed="max">
        <route edges="E23 E3 E1 E8"/>
    </vehicle>
    <vehicle id="veh131" type="veh_passenger" depart="402.47" departLane="best" departSpeed="max">
        <route edges="E21 E3 E1 E8"/>
    </vehicle>
    <vehicle id="veh132" type="veh_passenger" depart="405.54" departLane="best" departSpeed="max">
        <route edges="E9 E0 E4 E17"/>
    </vehicle>
    <vehicle id="veh133" type="veh_passenger" depart="408.62" departLane="best" departSpeed="max">
        <route edges="E19 E7 E4 E10"/>
    </vehicle>
    <vehicle id="veh134" type="veh_passenger" depart="411.69" departLane="best" departSpeed="max">
        <route edges="E11 E5 E1 E8"/>
    </vehicle>
    <vehicle id="veh135" type="veh_passenger" depart="414.76" departLane="best" departSpeed="max">
        <route edges="E19 E7 E2 E20"/>
    </vehicle>
    <vehicle id="veh136" type="veh_passenger" depart="417.83" departLane="best" departSpeed="max">
        <route edges="E9 E0 E6 E13"/>
    </vehicle>
    <vehicle id="veh137" type="veh_passenger" depart="420.91" departLane="best" departSpeed="max">
        <route edges="E19 E7 E4 E10"/>
    </vehicle>
    <vehicle id="veh138" type="veh_passenger" depart="423.98" departLane="best" departSpeed="max">
        <route edges="E18 E0 E6 E14"/>
    </vehicle>
    <vehicle id="veh139" type="veh_passenger" depart="427.05" departLane="best" departSpeed="max">
        <route edges="E23 E3 E6"/>
    </vehicle>
    <vehicle id="veh140" type="veh_passenger" depart="430.12" departLane="best" departSpeed="max">
        <route edges="E16 E5 E2 E22"/>
    </vehicle>
    <vehicle id="veh141" type="veh_passenger" depart="433.20" departLane="best" departSpeed="max">
        <route edges="E16 E5 E1 E8"/>
    </vehicle>
    <vehicle id="veh142" type="veh_passenger" depart="436.27" departLane="best" departSpeed="max">
        <route edges="E16 E5 E1 E8"/>
    </vehicle>
    <vehicle id="veh143" type="veh_passenger" depart="439.34" departLane="best">
        <route edges="E3 E6 E13"/>
    </vehicle>
    <vehicle id="veh144" type="veh_passenger" depart="442.41" departLane="best" departSpeed="max">
        <route edges="E11 E5 E1 E8"/>
    </vehicle>
    <vehicle id="veh145" type="veh_passenger" depart="445.48" departLane="best" departSpeed="max">
        <route edges="E21 E3 E6 E13"/>
    </vehicle>
    <vehicle id="veh146" type="veh_passenger" depart="448.56" departLane="best" departSpeed="max">
        <route edges="E12 E7 E2"/>
    </vehicle>
    <vehicle id="veh147" type="veh_passenger" depart="451.63" departLane="best" departSpeed="max">
        <route edges="E19 E7 E4 E10"/>
    </vehicle>
    <vehicle id="veh148" type="veh_passenger" depart="454.70" departLane="best" departSpeed="max">
        <route edges="E9 E0 E6 E13"/>
    </vehicle>
    <vehicle id="veh149" type="veh_passenger" depart="457.77" departLane="best" departSpeed="max">
        <route edges="E9 E0 E4 E17"/>
    </vehicle>
    <vehicle id="veh150" type="veh_passenger" depart="460.85" departLane="best" departSpeed="max">
        <route edges="E21 E3 E1 E8"/>
    </vehicle>
    <vehicle id="veh151" type="veh_passenger" depart="463.92" departLane="best" departSpeed="max">
        <route edges="E19 E7 E4 E10"/>
    </vehicle>
    <vehicle id="veh152" type="veh_passenger" depart="466.99" departLane="best" departSpeed="max">
        <route edges="E12 E7 E2 E22"/>
    </vehicle>
    <vehicle id="veh153" type="veh_passenger" depart="470.06" departLane="best" departSpeed="max">
        <route edges="E21 E3 E6 E13"/>
    </vehicle>
    <vehicle id="veh154" type="veh_passenger" depart="473.14" departLane="best" departSpeed="max">
        <route edges="E9 E0 E4 E17"/>
    </vehicle>
    <vehicle id="veh155" type="veh_passenger" depart="476.21" departLane="best" departSpeed="max">
        <route edges="E21 E3 E6"/>
    </vehicle>
    <vehicle id="veh156" type="veh_passenger" depart="479.28" departLane="best" departSpeed="max">
        <route edges="E19 E7 E4 E17"/>
    </vehicle>
    <vehicle id="veh157" type="veh_passenger" depart="482.35" departLane="best" departSpeed="max">
        <route edges="E23 E3 E1 E15"/>
    </vehicle>
    <vehicle id="veh158" type="veh_passenger" depart="485.42" departLane="best" departSpeed="max">
        <route edges="E21 E3 E4 E10"/>
    </vehicle>
    <vehicle id="veh159" type="veh_passenger" depart="488.50" departLane="best" departSpeed="max">
        <route edges="E16 E5 E2 E22"/>
    </vehicle>
    <vehicle id="veh160" type="veh_passenger" depart="491.57" departLane="best" departSpeed="max">
        <route edges="E21 E3 E6"/>
    </vehicle>
    <vehicle id="veh161" type="veh_passenger" depart="494.64" departLane="best" departSpeed="max">
        <route edges="E18 E0 E6 E14"/>
    </vehicle>
    <vehicle id="veh162" type="veh_passenger" depart="497.71" departLane="best" departSpeed="max">
        <route edges="E11 E5 E2 E20"/>
    </vehicle>
    <vehicle id="veh163" type="veh_passenger" depart="500.79" departLane="best" departSpeed="max">
        <route edges="E23 E3 E1 E15"/>
    </vehicle>
    <vehicle id="veh164" type="veh_passenger" depart="503.86" departLane="best" departSpeed="max">
        <route edges="E11 E5 E2 E20"/>
    </vehicle>
    <vehicle id="veh165" type="veh_passenger" depart="506.93" departLane="best" departSpeed="max">
        <route edges="E12 E7 E4 E10"/>
    </vehicle>
    <vehicle id="veh166" type="veh_passenger" depart="510.00" departLane="best" departSpeed="max">
        <route edges="E12 E7 E1 E8"/>
    </vehicle>
    <vehicle id="veh167" type="veh_passenger" depart="513.08" departLane="best">
        <route edges="E7 E2 E22"/>
    </vehicle>
    <vehicle id="veh168" type="veh_passenger" depart="516.15" departLane="best" departSpeed="max">
        <route edges="E12 E7 E4 E17"/>
    </vehicle>
    <vehicle id="veh169" type="veh_passenger" depart="519.22" departLane="best" departSpeed="max">
        <route edges="E21 E3 E1 E15"/>
    </vehicle>
    <vehicle id="veh170" type="veh_passenger" depart="522.29" departLane="best" departSpeed="max">
        <route edges="E9 E0 E6 E14"/>
    </vehicle>
    <vehicle id="veh171" type="veh_passenger" depart="525.36" departLane="best" departSpeed="max">
        <route edges="E16 E5 E2 E20"/>
    </vehicle>
    <vehicle id="veh172" type="veh_passenger" depart="528.44" departLane="best" departSpeed="max">
        <route edges="E21 E3 E1 E15"/>
    </vehicle>
    <vehicle id="veh173" type="veh_passenger" depart="531.51" departLane="best" departSpeed="max">
        <route edges="E21 E3 E6 E14"/>
    </vehicle>
    <vehicle id="veh174" type="veh_passenger" depart="534.58" departLane="best" departSpeed="max">
        <route edges="E19 E7 E2 E20"/>
    </vehicle>
    <vehicle id="veh175" type="veh_passenger" depart="537.65" departLane="best" departSpeed="max">
        <route edges="E16 E5 E2 E22"/>
    </vehicle>
    <vehicle id="veh176" type="veh_passenger" depart="540.73" departLane="best" departSpeed="max">
        <route edges="E12 E7 E4 E10"/>
    </vehicle>
    <vehicle id="veh177" type="veh_passenger" depart="543.80" departLane="best" departSpeed="max">
        <route edges="E9 E0 E4 E10"/>
    </vehicle>
    <vehicle id="veh178" type="veh_passenger" depart="546.87" departLane="best" departSpeed="max">
        <route edges="E23 E3 E1 E8"/>
    </vehicle>
    <vehicle id="veh179" type="veh_passenger" depart="549.94" departLane="best" departSpeed="max">
        <route edges="E9 E0 E4"/>
    </vehicle>
    <vehicle id="veh180" type="veh_passenger" depart="553.02" departLane="best" departSpeed="max">
        <route edges="E18 E0 E4"/>
    </vehicle>
    <vehicle id="veh181" type="veh_passenger" depart="556.09" departLane="best">
        <route edges="E5 E1 E8"/>
    </vehicle>
    <vehicle id="veh182" type="veh_passenger" depart="559.16" departLane="best" departSpeed="max">
        <route edges="E11 E5 E6 E13"/>
    </vehicle>
    <vehicle id="veh183" type="veh_passenger" depart="562.23" departLane="best" departSpeed="max">
        <route edges="E12 E7 E4 E10"/>
    </vehicle>
    <vehicle id="veh184" type="veh_passenger" depart="565.30" departLane="best">
        <route edges="E5 E1 E8"/>
    </vehicle>
    <vehicle id="veh185" type="veh_passenger" depart="568.38" departLane="best" departSpeed="max">
        <route edges="E11 E5 E1 E8"/>
    </vehicle>
    <vehicle id="veh186" type="veh_passenger" depart="571.45" departLane="best" departSpeed="max">
        <route edges="E18 E0 E4 E10"/>
    </vehicle>