<?xml version="1.0" encoding="UTF-8"?>

<!-- generated on 2025-06-25 11:07:47.820895 by randomTrips.py v1_23_1+0000-676720d13f6
<configuration>
    <net-file value="osm.net.xml.gz"/>
    <output-trip-file value="osm.pedestrian.trips.xml"/>
    <route-file value="osm.pedestrian.rou.xml"/>
    <pedestrians value="True"/>
    <prefix value="ped"/>
    <vehicle-class value="pedestrian"/>
    <fringe-factor value="1"/>
    <max-distance value="2000.0"/>
    <insertion-density value="100.0"/>
</configuration>
-->

<!-- generated on 2025-06-25 11:07:47 by Eclipse SUMO duarouter Version 1.23.1
<duarouterConfiguration xmlns:xsi="http://www.w3.org/2001/XMLSchema-instance" xsi:noNamespaceSchemaLocation="http://sumo.dlr.de/xsd/duarouterConfiguration.xsd">

    <input>
        <net-file value="osm.net.xml.gz"/>
        <route-files value="osm.pedestrian.trips.xml"/>
    </input>

    <output>
        <output-file value="osm.pedestrian.rou.xml"/>
        <alternatives-output value="NUL"/>
    </output>

    <time>
        <begin value="0.0"/>
        <end value="3600.0"/>
    </time>

    <report>
        <no-warnings value="true"/>
        <ignore-errors value="true"/>
        <no-step-log value="true"/>
    </report>

</duarouterConfiguration>
-->

<routes xmlns:xsi="http://www.w3.org/2001/XMLSchema-instance" xsi:noNamespaceSchemaLocation="http://sumo.dlr.de/xsd/routes_file.xsd">
    <vType id="ped_pedestrian" vClass="pedestrian"/>
    <person id="ped0" type="ped_pedestrian" depart="0.00">
        <walk edges="E3 E18 E0"/>
    </person>
    <person id="ped1" type="ped_pedestrian" depart="6.13">
        <walk edges="E16 E15"/>
    </person>
    <person id="ped2" type="ped_pedestrian" depart="12.27">
        <walk edges="E4"/>
    </person>
    <person id="ped3" type="ped_pedestrian" depart="18.40">
        <walk edges="E6 E1"/>
    </person>
    <person id="ped4" type="ped_pedestrian" depart="24.53">
        <walk edges="E18 E0"/>
    </person>
    <person id="ped5" type="ped_pedestrian" depart="30.66">
        <walk edges="E15 E1 E2"/>
    </person>
    <person id="ped6" type="ped_pedestrian" depart="36.80">
        <walk edges="E0 E15"/>
    </person>
    <person id="ped7" type="ped_pedestrian" depart="42.93">
        <walk edges="E3 E2"/>
    </person>
    <person id="ped8" type="ped_pedestrian" depart="49.06">
        <walk edges="E15 E18 E3"/>
    </person>
    <person id="ped9" type="ped_pedestrian" depart="55.19">
        <walk edges="E5 E1 E0"/>
    </person>
    <person id="ped10" type="ped_pedestrian" depart="61.33">
        <walk edges="E5 E4"/>
    </person>
    <person id="ped11" type="ped_pedestrian" depart="67.46">
        <walk edges="E17 E5 E1"/>
    </person>
    <person id="ped12" type="ped_pedestrian" depart="73.59">
        <walk edges="E7 E16 E17"/>
    </person>
    <person id="ped13" type="ped_pedestrian" depart="79.73">
        <walk edges="E1"/>
    </person>
    <person id="ped14" type="ped_pedestrian" depart="85.86">
        <walk edges="E6 E3"/>
    </person>
    <person id="ped15" type="ped_pedestrian" depart="91.99">
        <walk edges="E5 E4"/>
    </person>
    <person id="ped16" type="ped_pedestrian" depart="98.12">
        <walk edges="E2 E7"/>
    </person>
    <person id="ped17" type="ped_pedestrian" depart="104.26">
        <walk edges="E17 E5 E2"/>
    </person>
    <person id="ped18" type="ped_pedestrian" depart="110.39">
        <walk edges="E5 E17 E3"/>
    </person>
    <person id="ped19" type="ped_pedestrian" depart="116.52">
        <walk edges="E6 E2"/>
    </person>
    <person id="ped20" type="ped_pedestrian" depart="122.66">
        <walk edges="E4 E1 E0"/>
    </person>
    <person id="ped21" type="ped_pedestrian" depart="128.79">
        <walk edges="E15 E16"/>
    </person>
    <person id="ped22" type="ped_pedestrian" depart="134.92">
        <walk edges="E0 E15"/>
    </person>
    <person id="ped23" type="ped_pedestrian" depart="141.05">
        <walk edges="E1 E7 E16"/>
    </person>
    <person id="ped24" type="ped_pedestrian" depart="147.19">
        <walk edges="E3 E17"/>
    </person>
    <person id="ped25" type="ped_pedestrian" depart="153.32">
        <walk edges="E17 E5 E1 E15"/>
    </person>
    <person id="ped26" type="ped_pedestrian" depart="159.45">
        <walk edges="E16 E7"/>
    </person>
    <person id="ped27" type="ped_pedestrian" depart="165.58">
        <walk edges="E3"/>
    </person>
    <person id="ped28" type="ped_pedestrian" depart="171.72">
        <walk edges="E15 E1 E4"/>
    </person>
    <person id="ped29" type="ped_pedestrian" depart="177.85">
        <walk edges="E1 E5 E17"/>
    </person>
    <person id="ped30" type="ped_pedestrian" depart="183.98">
        <walk edges="E7 E3"/>
    </person>
    <person id="ped31" type="ped_pedestrian" depart="190.12">
        <walk edges="E2 E4"/>
    </person>
    <person id="ped32" type="ped_pedestrian" depart="196.25">
        <walk edges="E6 E5"/>
    </person>
    <person id="ped33" type="ped_pedestrian" depart="202.38">
        <walk edges="E15 E0"/>
    </person>
    <person id="ped34" type="ped_pedestrian" depart="208.51">
        <walk edges="E16"/>
    </person>
    <person id="ped35" type="ped_pedestrian" depart="214.65">
        <walk edges="E15 E7"/>
    </person>
    <person id="ped36" type="ped_pedestrian" depart="220.78">
        <walk edges="E6 E7 E16"/>
    </person>
    <person id="ped37" type="ped_pedestrian" depart="226.91">
        <walk edges="E3 E17"/>
    </person>
    <person id="ped38" type="ped_pedestrian" depart="233.04">
        <walk edges="E6 E2 E18"/>
    </person>
    <person id="ped39" type="ped_pedestrian" depart="239.18">
        <walk edges="E16 E15"/>
    </person>
    <person id="ped40" type="ped_pedestrian" depart="245.31">
        <walk edges="E2 E7 E16"/>
    </person>
    <person id="ped41" type="ped_pedestrian" depart="251.44">
        <walk edges="E3 E6"/>
    </person>
    <person id="ped42" type="ped_pedestrian" depart="257.58">
        <walk edges="E17 E5 E1 E15"/>
    </person>
    <person id="ped43" type="ped_pedestrian" depart="263.71">
        <walk edges="E7 E2"/>
    </person>
    <person id="ped44" type="ped_pedestrian" depart="269.84">
        <walk edges="E1 E0"/>
    </person>
    <person id="ped45" type="ped_pedestrian" depart="275.97">
        <walk edges="E1 E3"/>
    </person>
    <person id="ped46" type="ped_pedestrian" depart="282.11">
        <walk edges="E5 E17 E18"/>
    </person>
    <person id="ped47" type="ped_pedestrian" depart="288.24">
        <walk edges="E0 E1 E5 E17"/>
    </person>
    <person id="ped48" type="ped_pedestrian" depart="294.37">
        <walk edges="E7 E2"/>
    </person>
    <person id="ped49" type="ped_pedestrian" depart="300.50">
        <walk edges="E7 E6"/>
    </person>
    <person id="ped50" type="ped_pedestrian" depart="306.64">
        <walk edges="E0 E1 E4"/>
    </person>
    <person id="ped51" type="ped_pedestrian" depart="312.77">
        <walk edges="E4 E2"/>
    </person>
    <person id="ped52" type="ped_pedestrian" depart="318.90">
        <walk edges="E16 E7 E3"/>
    </person>
    <person id="ped53" type="ped_pedestrian" depart="325.04">
        <walk edges="E1 E2 E18"/>
    </person>
    <person id="ped54" type="ped_pedestrian" depart="331.17">
        <walk edges="E18 E2 E7"/>
    </person>
    <person id="ped55" type="ped_pedestrian" depart="337.30">
        <walk edges="E6 E7 E16"/>
    </person>
    <person id="ped56" type="ped_pedestrian" depart="343.43">
        <walk edges="E2 E1 E15"/>
    </person>
    <person id="ped57" type="ped_pedestrian" depart="349.57">
        <walk edges="E6"/>
    </person>
    <person id="ped58" type="ped_pedestrian" depart="355.70">
        <walk edges="E16 E7 E3"/>
    </person>
    <person id="ped59" type="ped_pedestrian" depart="361.83">
        <walk edges="E3 E1"/>
    </person>
    <person id="ped60" type="ped_pedestrian" depart="367.97">
        <walk edges="E5 E2"/>
    </person>
    <person id="ped61" type="ped_pedestrian" depart="374.10">
        <walk edges="E5 E2"/>
    </person>
    <person id="ped62" type="ped_pedestrian" depart="380.23">
        <walk edges="E0 E15 E16"/>
    </person>
    <person id="ped63" type="ped_pedestrian" depart="386.36">
        <walk edges="E0 E15 E7"/>
    </person>
    <person id="ped64" type="ped_pedestrian" depart="392.50">
        <walk edges="E6 E5"/>
    </person>
    <person id="ped65" type="ped_pedestrian" depart="398.63">
        <walk edges="E16 E15 E0"/>
    </person>
    <person id="ped66" type="ped_pedestrian" depart="404.76">
        <walk edges="E6 E7"/>
    </person>
    <person id="ped67" type="ped_pedestrian" depart="410.89">
        <walk edges="E1 E2 E18"/>
    </person>
    <person id="ped68" type="ped_pedestrian" depart="417.03">
        <walk edges="E0 E1 E5"/>
    </person>
    <person id="ped69" type="ped_pedestrian" depart="423.16">
        <walk edges="E5 E1"/>
    </person>
    <person id="ped70" type="ped_pedestrian" depart="429.29">
        <walk edges="E18 E2"/>
    </person>
    <person id="ped71" type="ped_pedestrian" depart="435.43">
        <walk edges="E16 E7 E6"/>
    </person>
    <person id="ped72" type="ped_pedestrian" depart="441.56">
        <walk edges="E18 E15"/>
    </person>
    <person id="ped73" type="ped_pedestrian" depart="447.69">
        <walk edges="E2 E4"/>
    </person>
    <person id="ped74" type="ped_pedestrian" depart="453.82">
        <walk edges="E15 E16"/>
    </person>
    <person id="ped75" type="ped_pedestrian" depart="459.96">
        <walk edges="E7 E3"/>
    </person>
    <person id="ped76" type="ped_pedestrian" depart="466.09">
        <walk edges="E18 E2"/>
    </person>
    <person id="ped77" type="ped_pedestrian" depart="472.22">
        <walk edges="E1 E15"/>
    </person>
    <person id="ped78" type="ped_pedestrian" depart="478.35">
        <walk edges="E17 E3"/>
    </person>
    <person id="ped79" type="ped_pedestrian" depart="484.49">
        <walk edges="E15"/>
    </person>
    <person id="ped80" type="ped_pedestrian" depart="490.62">
        <walk edges="E0 E18 E3"/>
    </person>
    <person id="ped81" type="ped_pedestrian" depart="496.75">
        <walk edges="E15 E1 E6"/>
    </person>
    <person id="ped82" type="ped_pedestrian" depart="502.89">
        <walk edges="E6 E1 E0"/>
    </person>
    <person id="ped83" type="ped_pedestrian" depart="509.02">
        <walk edges="E15 E1 E4"/>
    </person>
    <person id="ped84" type="ped_pedestrian" depart="515.15">
        <walk edges="E15 E1"/>
    </person>
    <person id="ped85" type="ped_pedestrian" depart="521.28">
        <walk edges="E7 E2"/>
    </person>
    <person id="ped86" type="ped_pedestrian" depart="527.42">
        <walk edges="E18 E17 E5"/>
    </person>
    <person id="ped87" type="ped_pedestrian" depart="533.55">
        <walk edges="E5 E1 E15"/>
    </person>
    <person id="ped88" type="ped_pedestrian" depart="539.68">
        <walk edges="E1 E2 E18"/>
    </person>
    <person id="ped89" type="ped_pedestrian" depart="545.82">
        <walk edges="E18"/>
    </person>
    <person id="ped90" type="ped_pedestrian" depart="551.95">
        <walk edges="E4"/>
    </person>
    <person id="ped91" type="ped_pedestrian" depart="558.08">
        <walk edges="E7 E1"/>
    </person>
    <person id="ped92" type="ped_pedestrian" depart="564.21">
        <walk edges="E17"/>
    </person>
    <person id="ped93" type="ped_pedestrian" depart="570.35">
        <walk edges="E6 E1 E15"/>
    </person>
    <person id="ped94" type="ped_pedestrian" depart="576.48">
        <walk edges="E15 E18"/>
    </person>
    <person id="ped95" type="ped_pedestrian" depart="582.61">
        <walk edges="E18 E2 E7 E16"/>
    </person>
    <person id="ped96" type="ped_pedestrian" depart="588.74">
        <walk edges="E15 E7"/>
    </person>
    <person id="ped97" type="ped_pedestrian" depart="594.88">
        <walk edges="E18 E2 E6"/>
    </person>
    <person id="ped98" type="ped_pedestrian" depart="601.01">
        <walk edges="E2 E1 E0"/>
    </person>
    <person id="ped99" type="ped_pedestrian" depart="607.14">
        <walk edges="E7 E6"/>
    </person>
    <person id="ped100" type="ped_pedestrian" depart="613.28">
        <walk edges="E7"/>
    </person>
    <person id="ped101" type="ped_pedestrian" depart="619.41">
        <walk edges="E6 E1"/>
    </person>
    <person id="ped102" type="ped_pedestrian" depart="625.54">
        <walk edges="E18 E15"/>
    </person>
    <person id="ped103" type="ped_pedestrian" depart="631.67">
        <walk edges="E17 E5 E1 E0"/>
    </person>
    <person id="ped104" type="ped_pedestrian" depart="637.81">
        <walk edges="E17 E16 E7"/>
    </person>
    <person id="ped105" type="ped_pedestrian" depart="643.94">
        <walk edges="E16 E5"/>
    </person>
    <person id="ped106" type="ped_pedestrian" depart="650.07">
        <walk edges="E18"/>
    </person>
    <person id="ped107" type="ped_pedestrian" depart="656.20">
        <walk edges="E7"/>
    </person>
    <person id="ped108" type="ped_pedestrian" depart="662.34">
        <walk edges="E2 E4"/>
    </person>
    <person id="ped109" type="ped_pedestrian" depart="668.47">
        <walk edges="E1 E7 E16"/>
    </person>
    <person id="ped110" type="ped_pedestrian" depart="674.60">
        <walk edges="E7 E2"/>
    </person>
    <person id="ped111" type="ped_pedestrian" depart="680.74">
        <walk edges="E2 E4"/>
    </person>
    <person id="ped112" type="ped_pedestrian" depart="686.87">
        <walk edges="E0 E18 E3"/>
    </person>
    <person id="ped113" type="ped_pedestrian" depart="693.00">
        <walk edges="E2 E6"/>
    </person>
    <person id="ped114" type="ped_pedestrian" depart="699.13">
        <walk edges="E1 E7"/>
    </person>
    <person id="ped115" type="ped_pedestrian" depart="705.27">
        <walk edges="E0 E15"/>
    </person>
    <person id="ped116" type="ped_pedestrian" depart="711.40">
        <walk edges="E3 E4"/>
    </person>
    <person id="ped117" type="ped_pedestrian" depart="717.53">
        <walk edges="E15 E1"/>
    </person>
    <person id="ped118" type="ped_pedestrian" depart="723.66">
        <walk edges="E6 E1 E15"/>
    </person>
    <person id="ped119" type="ped_pedestrian" depart="729.80">
        <walk edges="E3"/>
    </person>
    <person id="ped120" type="ped_pedestrian" depart="735.93">
        <walk edges="E18 E3"/>
    </person>
    <person id="ped121" type="ped_pedestrian" depart="742.06">
        <walk edges="E2 E7"/>
    </person>
    <person id="ped122" type="ped_pedestrian" depart="748.20">
        <walk edges="E15 E1 E4"/>
    </person>
    <person id="ped123" type="ped_pedestrian" depart="754.33">
        <walk edges="E15 E1 E5 E17"/>
    </person>
    <person id="ped124" type="ped_pedestrian" depart="760.46">
        <walk edges="E4 E7 E16"/>
    </person>
    <person id="ped125" type="ped_pedestrian" depart="766.59">
        <walk edges="E16 E5"/>
    </person>
    <person id="ped126" type="ped_pedestrian" depart="772.73">
        <walk edges="E0 E18"/>
    </person>
    <person id="ped127" type="ped_pedestrian" depart="778.86">
        <walk edges="E7"/>
    </person>
    <person id="ped128" type="ped_pedestrian" depart="784.99">
        <walk edges="E0 E15"/>
    </person>
    <person id="ped129" type="ped_pedestrian" depart="791.13">
        <walk edges="E16 E7"/>
    </person>
    <person id="ped130" type="ped_pedestrian" depart="797.26">
        <walk edges="E6"/>
    </person>
    <person id="ped131" type="ped_pedestrian" depart="803.39">
        <walk edges="E17 E5 E1"/>
    </person>
    <person id="ped132" type="ped_pedestrian" depart="809.52">
        <walk edges="E6 E4"/>
    </person>
    <person id="ped133" type="ped_pedestrian" depart="815.66">
        <walk edges="E3 E7"/>
    </person>
    <person id="ped134" type="ped_pedestrian" depart="821.79">
        <walk edges="E3 E18 E0"/>
    </person>
    <person id="ped135" type="ped_pedestrian" depart="827.92">
        <walk edges="E5 E16"/>
    </person>
    <person id="ped136" type="ped_pedestrian" depart="834.05">
        <walk edges="E3 E7"/>
    </person>
    <person id="ped137" type="ped_pedestrian" depart="840.19">
        <walk edges="E1"/>
    </person>
    <person id="ped138" type="ped_pedestrian" depart="846.32">
        <walk edges="E1 E2"/>
    </person>
    <person id="ped139" type="ped_pedestrian" depart="852.45">
        <walk edges="E16 E7 E3"/>
    </person>
    <person id="ped140" type="ped_pedestrian" depart="858.59">
        <walk edges="E4 E1 E15"/>
    </person>
    <person id="ped141" type="ped_pedestrian" depart="864.72">
        <walk edges="E3 E7 E16"/>
    </person>
    <person id="ped142" type="ped_pedestrian" depart="870.85">
        <walk edges="E18 E2 E6"/>
    </person>
    <person id="ped143" type="ped_pedestrian" depart="876.98">
        <walk edges="E6 E1"/>
    </person>
    <person id="ped144" type="ped_pedestrian" depart="883.12">
        <walk edges="E18 E2 E7 E16"/>
    </person>
    <person id="ped145" type="ped_pedestrian" depart="889.25">
        <walk edges="E0 E1 E5"/>
    </person>
    <person id="ped146" type="ped_pedestrian" depart="895.38">
        <walk edges="E3 E7 E16"/>
    </person>
    <person id="ped147" type="ped_pedestrian" depart="901.51">
        <walk edges="E4 E2"/>
    </person>
    <person id="ped148" type="ped_pedestrian" depart="907.65">
        <walk edges="E18 E0"/>
    </person>
    <person id="ped149" type="ped_pedestrian" depart="913.78">
        <walk edges="E0 E1 E6"/>
    </person>
    <person id="ped150" type="ped_pedestrian" depart="919.91">
        <walk edges="E6 E2"/>
    </person>
    <person id="ped151" type="ped_pedestrian" depart="926.05">
        <walk edges="E6 E2"/>
    </person>
    <person id="ped152" type="ped_pedestrian" depart="932.18">
        <walk edges="E1"/>
    </person>
    <person id="ped153" type="ped_pedestrian" depart="938.31">
        <walk edges="E16 E7 E6"/>
    </person>
    <person id="ped154" type="ped_pedestrian" depart="944.44">
        <walk edges="E5 E6"/>
    </person>
    <person id="ped155" type="ped_pedestrian" depart="950.58">
        <walk edges="E6 E1 E15"/>
    </person>
    <person id="ped156" type="ped_pedestrian" depart="956.71">
        <walk edges="E15 E1"/>
    </person>
    <person id="ped157" type="ped_pedestrian" depart="962.84">
        <walk edges="E5 E6"/>
    </person>
    <person id="ped158" type="ped_pedestrian" depart="968.98">
        <walk edges="E17 E3"/>
    </person>
    <person id="ped159" type="ped_pedestrian" depart="975.11">
        <walk edges="E1 E7"/>
    </person>
    <person id="ped160" type="ped_pedestrian" depart="981.24">
        <walk edges="E6 E7"/>
    </person>
    <person id="ped161" type="ped_pedestrian" depart="987.37">
        <walk edges="E5 E6"/>
    </person>
    <person id="ped162" type="ped_pedestrian" depart="993.51">
        <walk edges="E0 E1 E4"/>
    </person>
    <person id="ped163" type="ped_pedestrian" depart="999.64">
        <walk edges="E16 E7"/>
    </person>
    <person id="ped164" type="ped_pedestrian" depart="1005.77">
        <walk edges="E5 E6"/>
    </person>
    <person id="ped165" type="ped_pedestrian" depart="1011.90">
        <walk edges="E5 E16"/>
    </person>
    <person id="ped166" type="ped_pedestrian" depart="1018.04">
        <walk edges="E5 E1"/>
    </person>
    <person id="ped167" type="ped_pedestrian" depart="1024.17">
        <walk edges="E6"/>
    </person>
    <person id="ped168" type="ped_pedestrian" depart="1030.30">
        <walk edges="E15 E1 E5"/>
    </person>
    <person id="ped169" type="ped_pedestrian" depart="1036.44">
        <walk edges="E18 E2 E7 E16"/>
    </person>
    <person id="ped170" type="ped_pedestrian" depart="1042.57">
        <walk edges="E5 E1 E15"/>
    </person>
    <person id="ped171" type="ped_pedestrian" depart="1048.70">
        <walk edges="E0 E15"/>
    </person>
    <person id="ped172" type="ped_pedestrian" depart="1054.83">
        <walk edges="E16 E7 E6"/>
    </person>
    <person id="ped173" type="ped_pedestrian" depart="1060.97">
        <walk edges="E7 E16"/>
    </person>
    <person id="ped174" type="ped_pedestrian" depart="1067.10">
        <walk edges="E3 E17"/>
    </person>
    <person id="ped175" type="ped_pedestrian" depart="1073.23">
        <walk edges="E7 E2"/>
    </person>
    <person id="ped176" type="ped_pedestrian" depart="1079.36">
        <walk edges="E7 E1"/>
    </person>
    <person id="ped177" type="ped_pedestrian" depart="1085.50">
        <walk edges="E7 E15"/>
    </person>
    <person id="ped178" type="ped_pedestrian" depart="1091.63">
        <walk edges="E7 E16"/>
    </person>
    <person id="ped179" type="ped_pedestrian" depart="1097.76">
        <walk edges="E1 E2 E18"/>
    </person>
    <person id="ped180" type="ped_pedestrian" depart="1103.90">
        <walk edges="E4 E7 E16"/>
    </person>
    <person id="ped181" type="ped_pedestrian" depart="1110.03">
        <walk edges="E3 E2"/>
    </person>
    <person id="ped182" type="ped_pedestrian" depart="1116.16">
        <walk edges="E17 E5 E2"/>
    </person>
    <person id="ped183" type="ped_pedestrian" depart="1122.29">
        <walk edges="E16 E7 E4"/>
    </person>
    <person id="ped184" type="ped_pedestrian" depart="1128.43">
        <walk edges="E0 E15 E7"/>
    </person>
    <person id="ped185" type="ped_pedestrian" depart="1134.56">
        <walk edges="E2 E4"/>
    </person>
    <person id="ped186" type="ped_pedestrian" depart="1140.69">
        <walk edges="E4"/>
    </person>
    <person id="ped187" type="ped_pedestrian" depart="1146.82">
        <walk edges="E17 E5 E1 E0"/>
    </person>
    <person id="ped188" type="ped_pedestrian" depart="1152.96">
        <walk edges="E3 E7 E16"/>
    </person>
    <person id="ped189" type="ped_pedestrian" depart="1159.09">
        <walk edges="E16 E7 E6"/>
    </person>
    <person id="ped190" type="ped_pedestrian" depart="1165.22">
        <walk edges="E4 E7 E16"/>
    </person>
    <person id="ped191" type="ped_pedestrian" depart="1171.36">
        <walk edges="E16 E17"/>
    </person>
    <person id="ped192" type="ped_pedestrian" depart="1177.49">
        <walk edges="E17 E16"/>
    </person>
    <person id="ped193" type="ped_pedestrian" depart="1183.62">
        <walk edges="E1 E2 E18"/>
    </person>
    <person id="ped194" type="ped_pedestrian" depart="1189.75">
        <walk edges="E7 E4"/>
    </person>
    <person id="ped195" type="ped_pedestrian" depart="1195.89">
        <walk edges="E6 E3"/>
    </person>
    <person id="ped196" type="ped_pedestrian" depart="1202.02">
        <walk edges="E16 E7 E2"/>
    </person>
    <person id="ped197" type="ped_pedestrian" depart="1208.15">
        <walk edges="E0 E15 E16"/>
    </person>
    <person id="ped198" type="ped_pedestrian" depart="1214.29">
        <walk edges="E18 E2"/>
    </person>
    <person id="ped199" type="ped_pedestrian" depart="1220.42">
        <walk edges="E3 E18"/>
    </person>
    <person id="ped200" type="ped_pedestrian" depart="1226.55">
        <walk edges="E18 E15"/>
    </person>
    <person id="ped201" type="ped_pedestrian" depart="1232.68">
        <walk edges="E18 E2 E6"/>
    </person>
    <person id="ped202" type="ped_pedestrian" depart="1238.82">
        <walk edges="E5 E1 E15"/>
    </person>
    <person id="ped203" type="ped_pedestrian" depart="1244.95">
        <walk edges="E1 E2"/>
    </person>
    <person id="ped204" type="ped_pedestrian" depart="1251.08">
        <walk edges="E3 E17"/>
    </person>
    <person id="ped205" type="ped_pedestrian" depart="1257.21">
        <walk edges="E5"/>
    </person>
    <person id="ped206" type="ped_pedestrian" depart="1263.35">
        <walk edges="E4 E1 E15"/>
    </person>
    <person id="ped207" type="ped_pedestrian" depart="1269.48">
        <walk edges="E15 E0"/>
    </person>
    <person id="ped208" type="ped_pedestrian" depart="1275.61">
        <walk edges="E15 E18"/>
    </person>
    <person id="ped209" type="ped_pedestrian" depart="1281.75">
        <walk edges="E6 E1 E0"/>
    </person>
    <person id="ped210" type="ped_pedestrian" depart="1287.88">
        <walk edges="E17 E3"/>
    </person>
    <person id="ped211" type="ped_pedestrian" depart="1294.01">
        <walk edges="E15 E1 E4"/>
    </person>
    <person id="ped212" type="ped_pedestrian" depart="1300.14">
        <walk edges="E18 E15"/>
    </person>
    <person id="ped213" type="ped_pedestrian" depart="1306.28">
        <walk edges="E3 E18 E0"/>
    </person>
    <person id="ped214" type="ped_pedestrian" depart="1312.41">
        <walk edges="E5"/>
    </person>
    <person id="ped215" type="ped_pedestrian" depart="1318.54">
        <walk edges="E1 E2 E18"/>
    </person>
    <person id="ped216" type="ped_pedestrian" depart="1324.67">
        <walk edges="E15 E7"/>
    </person>
    <person id="ped217" type="ped_pedestrian" depart="1330.81">
        <walk edges="E2 E1 E0"/>
    </person>
    <person id="ped218" type="ped_pedestrian" depart="1336.94">
        <walk edges="E15 E1 E6"/>
    </person>
    <person id="ped219" type="ped_pedestrian" depart="1343.07">
        <walk edges="E18 E17 E5"/>
    </person>
    <person id="ped220" type="ped_pedestrian" depart="1349.21">
        <walk edges="E4 E7"/>
    </person>
    <person id="ped221" type="ped_pedestrian" depart="1355.34">
        <walk edges="E3 E7"/>
    </person>
    <person id="ped222" type="ped_pedestrian" depart="1361.47">
        <walk edges="E6 E3"/>
    </person>
    <person id="ped223" type="ped_pedestrian" depart="1367.60">
        <walk edges="E4 E2"/>
    </person>
    <person id="ped224" type="ped_pedestrian" depart="1373.74">
        <walk edges="E5 E2"/>
    </person>
    <person id="ped225" type="ped_pedestrian" depart="1379.87">
        <walk edges="E6 E4"/>
    </person>
    <person id="ped226" type="ped_pedestrian" depart="1386.00">
        <walk edges="E18 E2 E7 E16"/>
    </person>
    <person id="ped227" type="ped_pedestrian" depart="1392.14">
        <walk edges="E15 E18 E3"/>
    </person>
    <person id="ped228" type="ped_pedestrian" depart="1398.27">
        <walk edges="E5 E2"/>
    </person>
    <person id="ped229" type="ped_pedestrian" depart="1404.40">
        <walk edges="E3 E7 E16"/>
    </person>
    <person id="ped230" type="ped_pedestrian" depart="1410.53">
        <walk edges="E0 E15 E16"/>
    </person>
    <person id="ped231" type="ped_pedestrian" depart="1416.67">
        <walk edges="E16"/>
    </person>
    <person id="ped232" type="ped_pedestrian" depart="1422.80">
        <walk edges="E2 E1"/>
    </person>
    <person id="ped233" type="ped_pedestrian" depart="1428.93">
        <walk edges="E15 E1 E4"/>
    </person>
    <person id="ped234" type="ped_pedestrian" depart="1435.06">
        <walk edges="E4 E1 E0"/>
    </person>
    <person id="ped235" type="ped_pedestrian" depart="1441.20">
        <walk edges="E17 E5 E2"/>
    </person>
    <person id="ped236" type="ped_pedestrian" depart="1447.33">
        <walk edges="E17 E5 E1 E15"/>
    </person>
    <person id="ped237" type="ped_pedestrian" depart="1453.46">
        <walk edges="E18 E2 E6"/>
    </person>
    <person id="ped238" type="ped_pedestrian" depart="1459.60">
        <walk edges="E3 E4"/>
    </person>
    <person id="ped239" type="ped_pedestrian" depart="1465.73">
        <walk edges="E6 E5"/>
    </person>
    <person id="ped240" type="ped_pedestrian" depart="1471.86">
        <walk edges="E17 E5 E1 E0"/>
    </person>
    <person id="ped241" type="ped_pedestrian" depart="1477.99">
        <walk edges="E17 E5"/>
    </person>
    <person id="ped242" type="ped_pedestrian" depart="1484.13">
        <walk edges="E6 E7"/>
    </person>
    <person id="ped243" type="ped_pedestrian" depart="1490.26">
        <walk edges="E18 E2 E4"/>
    </person>
    <person id="ped244" type="ped_pedestrian" depart="1496.39">
        <walk edges="E2 E3"/>
    </person>
    <person id="ped245" type="ped_pedestrian" depart="1502.52">
        <walk edges="E15"/>
    </person>
    <person id="ped246" type="ped_pedestrian" depart="1508.66">
        <walk edges="E18 E0"/>
    </person>
    <person id="ped247" type="ped_pedestrian" depart="1514.79">
        <walk edges="E17 E5 E4"/>
    </person>
    <person id="ped248" type="ped_pedestrian" depart="1520.92">
        <walk edges="E17 E5 E1"/>
    </person>
    <person id="ped249" type="ped_pedestrian" depart="1527.06">
        <walk edges="E18 E2 E1"/>
    </person>
    <person id="ped250" type="ped_pedestrian" depart="1533.19">
        <walk edges="E3 E18 E0"/>
    </person>
    <person id="ped251" type="ped_pedestrian" depart="1539.32">
        <walk edges="E17 E5 E2"/>
    </person>
    <person id="ped252" type="ped_pedestrian" depart="1545.45">
        <walk edges="E0 E18 E3"/>
    </person>
    <person id="ped253" type="ped_pedestrian" depart="1551.59">
        <walk edges="E1 E2 E18"/>
    </person>
    <person id="ped254" type="ped_pedestrian" depart="1557.72">
        <walk edges="E0 E1 E5 E17"/>
    </person>
    <person id="ped255" type="ped_pedestrian" depart="1563.85">
        <walk edges="E15 E16"/>
    </person>
    <person id="ped256" type="ped_pedestrian" depart="1569.98">
        <walk edges="E5 E17"/>
    </person>
    <person id="ped257" type="ped_pedestrian" depart="1576.12">
        <walk edges="E5"/>
    </person>
    <person id="ped258" type="ped_pedestrian" depart="1582.25">
        <walk edges="E16 E15 E0"/>
    </person>
    <person id="ped259" type="ped_pedestrian" depart="1588.38">
        <walk edges="E0 E1 E2"/>
    </person>
    <person id="ped260" type="ped_pedestrian" depart="1594.52">
        <walk edges="E7 E16 E17"/>
    </person>
    <person id="ped261" type="ped_pedestrian" depart="1600.65">
        <walk edges="E3 E17 E5"/>
    </person>