<?xml version="1.0" encoding="UTF-8"?>

<!-- generated on 2025-07-12 21:49:11.599495 by randomTrips.py v1_23_1+0000-676720d13f6
<configuration>
    <net-file value="osm.net.xml.gz"/>
    <output-trip-file value="osm.motorcycle.trips.xml"/>
    <route-file value="osm.motorcycle.rou.xml"/>
    <prefix value="motorcycle"/>
    <trip-attributes value="departLane=&quot;best&quot;"/>
    <fringe-start-attributes value="departSpeed=&quot;max&quot;"/>
    <vehicle-class value="motorcycle"/>
    <fringe-factor value="2"/>
    <edge-permission value="motorcycle"/>
    <via-edge-types value="highway.motorway,highway.motorway_link,highway.trunk_link,highway.primary_link,highway.secondary_link,highway.tertiary_link"/>
    <max-distance value="1200.0"/>
    <remove-loops value="True"/>
    <validate value="True"/>
    <insertion-density value="40.0"/>
</configuration>
-->

<!-- generated on 2025-07-12 21:49:11 by Eclipse SUMO duarouter Version 1.23.1
<duarouterConfiguration xmlns:xsi="http://www.w3.org/2001/XMLSchema-instance" xsi:noNamespaceSchemaLocation="http://sumo.dlr.de/xsd/duarouterConfiguration.xsd">

    <input>
        <net-file value="osm.net.xml.gz"/>
        <route-files value="osm.motorcycle.trips.xml"/>
    </input>

    <output>
        <output-file value="osm.motorcycle.rou.xml"/>
        <alternatives-output value="NUL"/>
    </output>

    <processing>
        <remove-loops value="true"/>
    </processing>

    <time>
        <begin value="0.0"/>
        <end value="3600.0"/>
    </time>

    <report>
        <no-warnings value="true"/>
        <ignore-errors value="true"/>
        <no-step-log value="true"/>
    </report>

</duarouterConfiguration>
-->

<routes xmlns:xsi="http://www.w3.org/2001/XMLSchema-instance" xsi:noNamespaceSchemaLocation="http://sumo.dlr.de/xsd/routes_file.xsd">
    <vType id="motorcycle_motorcycle" vClass="motorcycle"/>
    <vehicle id="motorcycle0" type="motorcycle_motorcycle" depart="0.00" departLane="best" departSpeed="max">
        <route edges="E16 E5 E6 E13"/>
    </vehicle>
    <vehicle id="motorcycle1" type="motorcycle_motorcycle" depart="10.09" departLane="best">
        <route edges="E7 E4 E10"/>
    </vehicle>
    <vehicle id="motorcycle2" type="motorcycle_motorcycle" depart="20.18" departLane="best" departSpeed="max">
        <route edges="E12 E7 E2"/>
    </vehicle>
    <vehicle id="motorcycle3" type="motorcycle_motorcycle" depart="30.27" departLane="best">
        <route edges="E0 E6 E13"/>
    </vehicle>
    <vehicle id="motorcycle4" type="motorcycle_motorcycle" depart="40.36" departLane="best" departSpeed="max">
        <route edges="E23 E20"/>
    </vehicle>
    <vehicle id="motorcycle5" type="motorcycle_motorcycle" depart="50.45" departLane="best" departSpeed="max">
        <route edges="E12 E7 E2 E20"/>
    </vehicle>
    <vehicle id="motorcycle6" type="motorcycle_motorcycle" depart="60.54" departLane="best">
        <route edges="E5 E2 E22"/>
    </vehicle>
    <vehicle id="motorcycle7" type="motorcycle_motorcycle" depart="70.63" departLane="best" departSpeed="max">
        <route edges="E18 E0 E4 E10"/>
    </vehicle>
    <vehicle id="motorcycle8" type="motorcycle_motorcycle" depart="80.72" departLane="best" departSpeed="max">
        <route edges="E9 E15"/>
    </vehicle>
    <vehicle id="motorcycle9" type="motorcycle_motorcycle" depart="90.81" departLane="best" departSpeed="max">
        <route edges="E18 E0 E2 E20"/>
    </vehicle>
    <vehicle id="motorcycle10" type="motorcycle_motorcycle" depart="100.90" departLane="best">
        <route edges="E5 E2 E20"/>
    </vehicle>
    <vehicle id="motorcycle11" type="motorcycle_motorcycle" depart="110.99" departLane="best" departSpeed="max">
        <route edges="E23 E3 E1"/>
    </vehicle>
    <vehicle id="motorcycle12" type="motorcycle_motorcycle" depart="121.08" departLane="best" departSpeed="max">
        <route edges="E12 E14"/>
    </vehicle>
    <vehicle id="motorcycle13" type="motorcycle_motorcycle" depart="131.16" departLane="best" departSpeed="max">
        <route edges="E11 E5 E6 E14"/>
    </vehicle>
    <vehicle id="motorcycle14" type="motorcycle_motorcycle" depart="141.25" departLane="best" departSpeed="max">
        <route edges="E23 E3 E1 E15"/>
    </vehicle>
    <vehicle id="motorcycle15" type="motorcycle_motorcycle" depart="151.34" departLane="best" departSpeed="max">
        <route edges="E18 E0 E6 E13"/>
    </vehicle>
    <vehicle id="motorcycle16" type="motorcycle_motorcycle" depart="161.43" departLane="best" departSpeed="max">
        <route edges="E16 E5 E1 E8"/>
    </vehicle>
    <vehicle id="motorcycle17" type="motorcycle_motorcycle" depart="171.52" departLane="best" departSpeed="max">
        <route edges="E23 E20"/>
    </vehicle>
    <vehicle id="motorcycle18" type="motorcycle_motorcycle" depart="181.61" departLane="best" departSpeed="max">
        <route edges="E11 E5 E1 E15"/>
    </vehicle>
    <vehicle id="motorcycle19" type="motorcycle_motorcycle" depart="191.70" departLane="best" departSpeed="max">
        <route edges="E9 E0 E2 E22"/>
    </vehicle>
    <vehicle id="motorcycle20" type="motorcycle_motorcycle" depart="201.79" departLane="best" departSpeed="max">
        <route edges="E21 E22"/>
    </vehicle>
    <vehicle id="motorcycle21" type="motorcycle_motorcycle" depart="211.88" departLane="best" departSpeed="max">
        <route edges="E16 E5 E6 E14"/>
    </vehicle>
    <vehicle id="motorcycle22" type="motorcycle_motorcycle" depart="221.97" departLane="best" departSpeed="max">
        <route edges="E12 E7 E1 E8"/>
    </vehicle>
    <vehicle id="motorcycle23" type="motorcycle_motorcycle" depart="232.06" departLane="best" departSpeed="max">
        <route edges="E23 E3 E1 E15"/>
    </vehicle>
    <vehicle id="motorcycle24" type="motorcycle_motorcycle" depart="242.15" departLane="best">
        <route edges="E7 E4 E17"/>
    </vehicle>
    <vehicle id="motorcycle25" type="motorcycle_motorcycle" depart="252.24" departLane="best" departSpeed="max">
        <route edges="E16 E5 E6 E13"/>
    </vehicle>
    <vehicle id="motorcycle26" type="motorcycle_motorcycle" depart="262.33" departLane="best" departSpeed="max">
        <route edges="E21 E3 E6 E14"/>
    </vehicle>
    <vehicle id="motorcycle27" type="motorcycle_motorcycle" depart="272.42" departLane="best" departSpeed="max">
        <route edges="E18 E0 E6 E13"/>
    </vehicle>
    <vehicle id="motorcycle28" type="motorcycle_motorcycle" depart="282.51" departLane="best" departSpeed="max">
        <route edges="E9 E0 E2"/>
    </vehicle>
    <vehicle id="motorcycle29" type="motorcycle_motorcycle" depart="292.60" departLane="best" departSpeed="max">
        <route edges="E11 E5 E1"/>
    </vehicle>
    <vehicle id="motorcycle30" type="motorcycle_motorcycle" depart="302.69" departLane="best" departSpeed="max">
        <route edges="E11 E5 E2 E22"/>
    </vehicle>
    <vehicle id="motorcycle31" type="motorcycle_motorcycle" depart="312.78" departLane="best">
        <route edges="E1 E15"/>
    </vehicle>
    <vehicle id="motorcycle32" type="motorcycle_motorcycle" depart="322.87" departLane="best" departSpeed="max">
        <route edges="E9 E0 E2"/>
    </vehicle>
    <vehicle id="motorcycle33" type="motorcycle_motorcycle" depart="332.96" departLane="best" departSpeed="max">
        <route edges="E9 E0 E6"/>
    </vehicle>
    <vehicle id="motorcycle34" type="motorcycle_motorcycle" depart="343.05" departLane="best" departSpeed="max">
        <route edges="E16 E5 E2 E22"/>
    </vehicle>
    <vehicle id="motorcycle35" type="motorcycle_motorcycle" depart="353.14" departLane="best" departSpeed="max">
        <route edges="E11 E17"/>
    </vehicle>
    <vehicle id="motorcycle36" type="motorcycle_motorcycle" depart="363.23" departLane="best" departSpeed="max">
        <route edges="E19 E7 E1 E8"/>
    </vehicle>
    <vehicle id="motorcycle37" type="motorcycle_motorcycle" depart="373.32" departLane="best" departSpeed="max">
        <route edges="E16 E5 E2 E22"/>
    </vehicle>
    <vehicle id="motorcycle38" type="motorcycle_motorcycle" depart="383.41" departLane="best" departSpeed="max">
        <route edges="E21 E3 E4 E10"/>
    </vehicle>
    <vehicle id="motorcycle39" type="motorcycle_motorcycle" depart="393.49" departLane="best">
        <route edges="E0 E6 E14"/>
    </vehicle>
    <vehicle id="motorcycle40" type="motorcycle_motorcycle" depart="403.58" departLane="best" departSpeed="max">
        <route edges="E16 E5 E1"/>
    </vehicle>
    <vehicle id="motorcycle41" type="motorcycle_motorcycle" depart="413.67" departLane="best">
        <route edges="E7 E1 E8"/>
    </vehicle>
    <vehicle id="motorcycle42" type="motorcycle_motorcycle" depart="423.76" departLane="best" departSpeed="max">
        <route edges="E11 E17"/>
    </vehicle>
    <vehicle id="motorcycle43" type="motorcycle_motorcycle" depart="433.85" departLane="best">
        <route edges="E4 E10"/>
    </vehicle>
    <vehicle id="motorcycle44" type="motorcycle_motorcycle" depart="443.94" departLane="best" departSpeed="max">
        <route edges="E19 E7 E2 E20"/>
    </vehicle>
    <vehicle id="motorcycle45" type="motorcycle_motorcycle" depart="454.03" departLane="best" departSpeed="max">
        <route edges="E16 E5 E6"/>
    </vehicle>
    <vehicle id="motorcycle46" type="motorcycle_motorcycle" depart="464.12" departLane="best" departSpeed="max">
        <route edges="E19 E13"/>
    </vehicle>
    <vehicle id="motorcycle47" type="motorcycle_motorcycle" depart="474.21" departLane="best" departSpeed="max">
        <route edges="E12 E14"/>
    </vehicle>
    <vehicle id="motorcycle48" type="motorcycle_motorcycle" depart="484.30" departLane="best" departSpeed="max">
        <route edges="E9 E0 E2 E22"/>
    </vehicle>
    <vehicle id="motorcycle49" type="motorcycle_motorcycle" depart="494.39" departLane="best" departSpeed="max">
        <route edges="E19 E7 E2"/>
    </vehicle>
    <vehicle id="motorcycle50" type="motorcycle_motorcycle" depart="504.48" departLane="best" departSpeed="max">
        <route edges="E11 E5 E6 E13"/>
    </vehicle>
    <vehicle id="motorcycle51" type="motorcycle_motorcycle" depart="514.57" departLane="best" departSpeed="max">
        <route edges="E18 E0 E2 E20"/>
    </vehicle>
    <vehicle id="motorcycle52" type="motorcycle_motorcycle" depart="524.66" departLane="best" departSpeed="max">
        <route edges="E12 E7"/>
    </vehicle>
    <vehicle id="motorcycle53" type="motorcycle_motorcycle" depart="534.75" departLane="best" departSpeed="max">
        <route edges="E12 E7 E2 E22"/>
    </vehicle>
    <vehicle id="motorcycle54" type="motorcycle_motorcycle" depart="544.84" departLane="best" departSpeed="max">
        <route edges="E12 E7 E4 E10"/>
    </vehicle>
    <vehicle id="motorcycle55" type="motorcycle_motorcycle" depart="554.93" departLane="best" departSpeed="max">
        <route edges="E9 E0 E2 E20"/>
    </vehicle>
    <vehicle id="motorcycle56" type="motorcycle_motorcycle" depart="565.02" departLane="best" departSpeed="max">
        <route edges="E19 E7 E4"/>
    </vehicle>
    <vehicle id="motorcycle57" type="motorcycle_motorcycle" depart="575.11" departLane="best">
        <route edges="E5 E6 E13"/>
    </vehicle>
    <vehicle id="motorcycle58" type="motorcycle_motorcycle" depart="585.20" departLane="best" departSpeed="max">
        <route edges="E11 E17"/>
    </vehicle>
    <vehicle id="motorcycle59" type="motorcycle_motorcycle" depart="595.29" departLane="best" departSpeed="max">
        <route edges="E19 E7 E4 E17"/>
    </vehicle>
    <vehicle id="motorcycle60" type="motorcycle_motorcycle" depart="605.38" departLane="best" departSpeed="max">
        <route edges="E9 E0 E4 E10"/>
    </vehicle>
    <vehicle id="motorcycle61" type="motorcycle_motorcycle" depart="615.47" departLane="best" departSpeed="max">
        <route edges="E18 E15"/>
    </vehicle>
    <vehicle id="motorcycle62" type="motorcycle_motorcycle" depart="625.56" departLane="best">
        <route edges="E6 E13"/>
    </vehicle>
    <vehicle id="motorcycle63" type="motorcycle_motorcycle" depart="635.65" departLane="best" departSpeed="max">
        <route edges="E12 E7 E4 E17"/>
    </vehicle>
    <vehicle id="motorcycle64" type="motorcycle_motorcycle" depart="645.73" departLane="best" departSpeed="max">
        <route edges="E19 E14"/>
    </vehicle>
    <vehicle id="motorcycle65" type="motorcycle_motorcycle" depart="655.82" departLane="best" departSpeed="max">
        <route edges="E12 E7 E1 E8"/>
    </vehicle>
    <vehicle id="motorcycle66" type="motorcycle_motorcycle" depart="665.91" departLane="best" departSpeed="max">
        <route edges="E21 E3 E1"/>
    </vehicle>
    <vehicle id="motorcycle67" type="motorcycle_motorcycle" depart="676.00" departLane="best" departSpeed="max">
        <route edges="E9 E0 E6"/>
    </vehicle>
    <vehicle id="motorcycle68" type="motorcycle_motorcycle" depart="686.09" departLane="best" departSpeed="max">
        <route edges="E19 E13"/>
    </vehicle>
    <vehicle id="motorcycle69" type="motorcycle_motorcycle" depart="696.18" departLane="best" departSpeed="max">
        <route edges="E18 E8"/>
    </vehicle>
    <vehicle id="motorcycle70" type="motorcycle_motorcycle" depart="706.27" departLane="best" departSpeed="max">
        <route edges="E19 E7 E4 E17"/>
    </vehicle>
    <vehicle id="motorcycle71" type="motorcycle_motorcycle" depart="716.36" departLane="best" departSpeed="max">
        <route edges="E21 E3"/>
    </vehicle>
    <vehicle id="motorcycle72" type="motorcycle_motorcycle" depart="726.45" departLane="best" departSpeed="max">
        <route edges="E11 E5 E6 E14"/>
    </vehicle>
    <vehicle id="motorcycle73" type="motorcycle_motorcycle" depart="736.54" departLane="best" departSpeed="max">
        <route edges="E9 E0 E2 E20"/>
    </vehicle>
    <vehicle id="motorcycle74" type="motorcycle_motorcycle" depart="746.63" departLane="best" departSpeed="max">
        <route edges="E21 E3"/>
    </vehicle>
    <vehicle id="motorcycle75" type="motorcycle_motorcycle" depart="756.72" departLane="best" departSpeed="max">
        <route edges="E11 E5 E1 E8"/>
    </vehicle>
    <vehicle id="motorcycle76" type="motorcycle_motorcycle" depart="766.81" departLane="best" departSpeed="max">
        <route edges="E21 E22"/>
    </vehicle>
    <vehicle id="motorcycle77" type="motorcycle_motorcycle" depart="776.90" departLane="best" departSpeed="max">
        <route edges="E12 E7 E4 E10"/>
    </vehicle>
    <vehicle id="motorcycle78" type="motorcycle_motorcycle" depart="786.99" departLane="best" departSpeed="max">
        <route edges="E19 E7 E2 E20"/>
    </vehicle>
    <vehicle id="motorcycle79" type="motorcycle_motorcycle" depart="797.08" departLane="best" departSpeed="max">
        <route edges="E12 E7 E1 E15"/>
    </vehicle>
    <vehicle id="motorcycle80" type="motorcycle_motorcycle" depart="807.17" departLane="best" departSpeed="max">
        <route edges="E23 E3 E6 E14"/>
    </vehicle>
    <vehicle id="motorcycle81" type="motorcycle_motorcycle" depart="817.26" departLane="best" departSpeed="max">
        <route edges="E16 E5 E1 E8"/>
    </vehicle>
    <vehicle id="motorcycle82" type="motorcycle_motorcycle" depart="827.35" departLane="best">
        <route edges="E7"/>
    </vehicle>
    <vehicle id="motorcycle83" type="motorcycle_motorcycle" depart="837.44" departLane="best" departSpeed="max">
        <route edges="E18 E0 E4 E10"/>
    </vehicle>
    <vehicle id="motorcycle84" type="motorcycle_motorcycle" depart="847.53" departLane="best" departSpeed="max">
        <route edges="E21 E3 E1 E8"/>
    </vehicle>
    <vehicle id="motorcycle85" type="motorcycle_motorcycle" depart="857.62" departLane="best">
        <route edges="E5 E6 E14"/>
    </vehicle>
    <vehicle id="motorcycle86" type="motorcycle_motorcycle" depart="867.71" departLane="best" departSpeed="max">
        <route edges="E23 E3 E1 E8"/>
    </vehicle>
    <vehicle id="motorcycle87" type="motorcycle_motorcycle" depart="877.80" departLane="best" departSpeed="max">
        <route edges="E11 E5 E2 E20"/>
    </vehicle>
    <vehicle id="motorcycle88" type="motorcycle_motorcycle" depart="887.89" departLane="best" departSpeed="max">
        <route edges="E16 E5 E2 E20"/>
    </vehicle>
    <vehicle id="motorcycle89" type="motorcycle_motorcycle" depart="897.98" departLane="best">
        <route edges="E3 E6 E13"/>
    </vehicle>
    <vehicle id="motorcycle90" type="motorcycle_motorcycle" depart="908.06" departLane="best" departSpeed="max">
        <route edges="E23 E3 E6 E14"/>
    </vehicle>
    <vehicle id="motorcycle91" type="motorcycle_motorcycle" depart="918.15" departLane="best" departSpeed="max">
        <route edges="E19 E7"/>
    </vehicle>
    <vehicle id="motorcycle92" type="motorcycle_motorcycle" depart="928.24" departLane="best" departSpeed="max">
        <route edges="E19 E14"/>
    </vehicle>
    <vehicle id="motorcycle93" type="motorcycle_motorcycle" depart="938.33" departLane="best">
        <route edges="E0 E4"/>
    </vehicle>
    <vehicle id="motorcycle94" type="motorcycle_motorcycle" depart="948.42" departLane="best" departSpeed="max">
        <route edges="E23 E3 E6 E14"/>
    </vehicle>
    <vehicle id="motorcycle95" type="motorcycle_motorcycle" depart="958.51" departLane="best">
        <route edges="E7 E2 E20"/>
    </vehicle>
    <vehicle id="motorcycle96" type="motorcycle_motorcycle" depart="968.60" departLane="best">
        <route edges="E5 E6"/>
    </vehicle>
    <vehicle id="motorcycle97" type="motorcycle_motorcycle" depart="978.69" departLane="best" departSpeed="max">
        <route edges="E12 E7 E4 E10"/>
    </vehicle>
    <vehicle id="motorcycle98" type="motorcycle_motorcycle" depart="988.78" departLane="best" departSpeed="max">
        <route edges="E18 E0 E2 E20"/>
    </vehicle>
    <vehicle id="motorcycle99" type="motorcycle_motorcycle" depart="998.87" departLane="best" departSpeed="max">
        <route edges="E11 E5 E1 E8"/>
    </vehicle>
    <vehicle id="motorcycle100" type="motorcycle_motorcycle" depart="1008.96" departLane="best" departSpeed="max">
        <route edges="E16 E5 E1 E8"/>
    </vehicle>
    <vehicle id="motorcycle101" type="motorcycle_motorcycle" depart="1019.05" departLane="best">
        <route edges="E5 E6"/>
    </vehicle>
    <vehicle id="motorcycle102" type="motorcycle_motorcycle" depart="1029.14" departLane="best">
        <route edges="E5 E6 E14"/>
    </vehicle>
    <vehicle id="motorcycle103" type="motorcycle_motorcycle" depart="1039.23" departLane="best">
        <route edges="E4 E10"/>
    </vehicle>
    <vehicle id="motorcycle104" type="motorcycle_motorcycle" depart="1049.32" departLane="best">
        <route edges="E6"/>
    </vehicle>
    <vehicle id="motorcycle105" type="motorcycle_motorcycle" depart="1059.41" departLane="best" departSpeed="max">
        <route edges="E19 E14"/>
    </vehicle>
    <vehicle id="motorcycle106" type="motorcycle_motorcycle" depart="1069.50" departLane="best">
        <route edges="E5 E6 E13"/>
    </vehicle>
    <vehicle id="motorcycle107" type="motorcycle_motorcycle" depart="1079.59" departLane="best">
        <route edges="E0 E6 E13"/>
    </vehicle>
    <vehicle id="motorcycle108" type="motorcycle_motorcycle" depart="1089.68" departLane="best" departSpeed="max">
        <route edges="E16 E5 E6"/>
    </vehicle>
    <vehicle id="motorcycle109" type="motorcycle_motorcycle" depart="1099.77" departLane="best" departSpeed="max">
        <route edges="E9 E0 E6 E14"/>
    </vehicle>
    <vehicle id="motorcycle110" type="motorcycle_motorcycle" depart="1109.86" departLane="best" departSpeed="max">
        <route edges="E23 E3 E1 E15"/>
    </vehicle>
    <vehicle id="motorcycle111" type="motorcycle_motorcycle" depart="1119.95" departLane="best" departSpeed="max">
        <route edges="E9 E0 E2"/>
    </vehicle>
    <vehicle id="motorcycle112" type="motorcycle_motorcycle" depart="1130.04" departLane="best" departSpeed="max">
        <route edges="E9 E0 E4 E10"/>
    </vehicle>
    <vehicle id="motorcycle113" type="motorcycle_motorcycle" depart="1140.13" departLane="best" departSpeed="max">
        <route edges="E9 E0 E6 E13"/>
    </vehicle>
    <vehicle id="motorcycle114" type="motorcycle_motorcycle" depart="1150.22" departLane="best" departSpeed="max">
        <route edges="E9 E0 E6 E14"/>
    </vehicle>
    <vehicle id="motorcycle115" type="motorcycle_motorcycle" depart="1160.30" departLane="best" departSpeed="max">
        <route edges="E11 E17"/>
    </vehicle>
    <vehicle id="motorcycle116" type="motorcycle_motorcycle" depart="1170.39" departLane="best">
        <route edges="E3 E6 E14"/>
    </vehicle>
    <vehicle id="motorcycle117" type="motorcycle_motorcycle" depart="1180.48" departLane="best" departSpeed="max">
        <route edges="E18 E0 E2 E20"/>
    </vehicle>
    <vehicle id="motorcycle118" type="motorcycle_motorcycle" depart="1190.57" departLane="best" departSpeed="max">
        <route edges="E23 E3 E6 E14"/>
    </vehicle>
    <vehicle id="motorcycle119" type="motorcycle_motorcycle" depart="1200.66" departLane="best" departSpeed="max">
        <route edges="E16 E5 E6"/>
    </vehicle>
    <vehicle id="motorcycle120" type="motorcycle_motorcycle" depart="1210.75" departLane="best">
        <route edges="E3 E6 E14"/>
    </vehicle>
    <vehicle id="motorcycle121" type="motorcycle_motorcycle" depart="1220.84" departLane="best" departSpeed="max">
        <route edges="E16 E5 E1 E15"/>
    </vehicle>
    <vehicle id="motorcycle122" type="motorcycle_motorcycle" depart="1230.93" departLane="best" departSpeed="max">
        <route edges="E18 E0 E6 E14"/>
    </vehicle>
    <vehicle id="motorcycle123" type="motorcycle_motorcycle" depart="1241.02" departLane="best" departSpeed="max">
        <route edges="E11 E17"/>
    </vehicle>
    <vehicle id="motorcycle124" type="motorcycle_motorcycle" depart="1251.11" departLane="best" departSpeed="max">
        <route edges="E9 E0 E2 E22"/>
    </vehicle>
    <vehicle id="motorcycle125" type="motorcycle_motorcycle" depart="1261.20" departLane="best">
        <route edges="E7 E2 E20"/>
    </vehicle>
    <vehicle id="motorcycle126" type="motorcycle_motorcycle" depart="1271.29" departLane="best" departSpeed="max">
        <route edges="E16 E5 E2 E20"/>
    </vehicle>
    <vehicle id="motorcycle127" type="motorcycle_motorcycle" depart="1281.38" departLane="best">
        <route edges="E0 E6 E14"/>
    </vehicle>
    <vehicle id="motorcycle128" type="motorcycle_motorcycle" depart="1291.47" departLane="best" departSpeed="max">
        <route edges="E19 E7 E2 E20"/>
    </vehicle>
    <vehicle id="motorcycle129" type="motorcycle_motorcycle" depart="1301.56" departLane="best" departSpeed="max">
        <route edges="E23 E3 E4 E17"/>
    </vehicle>
    <vehicle id="motorcycle130" type="motorcycle_motorcycle" depart="1311.65" departLane="best" departSpeed="max">
        <route edges="E19 E13"/>
    </vehicle>
    <vehicle id="motorcycle131" type="motorcycle_motorcycle" depart="1321.74" departLane="best" departSpeed="max">
        <route edges="E19 E7"/>
    </vehicle>
    <vehicle id="motorcycle132" type="motorcycle_motorcycle" depart="1331.83" departLane="best">
        <route edges="E5 E6 E13"/>
    </vehicle>
    <vehicle id="motorcycle133" type="motorcycle_motorcycle" depart="1341.92" departLane="best" departSpeed="max">
        <route edges="E11 E5 E2"/>
    </vehicle>
    <vehicle id="motorcycle134" type="motorcycle_motorcycle" depart="1352.01" departLane="best" departSpeed="max">
        <route edges="E23 E3 E1 E15"/>
    </vehicle>
    <vehicle id="motorcycle135" type="motorcycle_motorcycle" depart="1362.10" departLane="best" departSpeed="max">
        <route edges="E23 E3 E6 E13"/>
    </vehicle>
    <vehicle id="motorcycle136" type="motorcycle_motorcycle" depart="1372.19" departLane="best" departSpeed="max">
        <route edges="E12 E7 E4 E17"/>
    </vehicle>
    <vehicle id="motorcycle137" type="motorcycle_motorcycle" depart="1382.28" departLane="best" departSpeed="max">
        <route edges="E18 E0 E2 E22"/>
    </vehicle>
    <vehicle id="motorcycle138" type="motorcycle_motorcycle" depart="1392.37" departLane="best" departSpeed="max">
        <route edges="E12 E7 E2 E22"/>
    </vehicle>
    <vehicle id="motorcycle139" type="motorcycle_motorcycle" depart="1402.46" departLane="best" departSpeed="max">
        <route edges="E19 E13"/>
    </vehicle>
    <vehicle id="motorcycle140" type="motorcycle_motorcycle" depart="1412.54" departLane="best">
        <route edges="E4"/>
    </vehicle>
    <vehicle id="motorcycle141" type="motorcycle_motorcycle" depart="1422.63" departLane="best" departSpeed="max">
        <route edges="E11 E17"/>
    </vehicle>
    <vehicle id="motorcycle142" type="motorcycle_motorcycle" depart="1432.72" departLane="best" departSpeed="max">
        <route edges="E12 E7 E1 E8"/>
    </vehicle>
    <vehicle id="motorcycle143" type="motorcycle_motorcycle" depart="1442.81" departLane="best" departSpeed="max">
        <route edges="E23 E3 E1 E8"/>
    </vehicle>
    <vehicle id="motorcycle144" type="motorcycle_motorcycle" depart="1452.90" departLane="best" departSpeed="max">
        <route edges="E21 E3 E1 E8"/>
    </vehicle>
    <vehicle id="motorcycle145" type="motorcycle_motorcycle" depart="1462.99" departLane="best">
        <route edges="E7 E2 E20"/>
    </vehicle>
    <vehicle id="motorcycle146" type="motorcycle_motorcycle" depart="1473.08" departLane="best">
        <route edges="E5 E2 E20"/>
    </vehicle>
    <vehicle id="motorcycle147" type="motorcycle_motorcycle" depart="1483.17" departLane="best" departSpeed="max">
        <route edges="E19 E14"/>
    </vehicle>
    <vehicle id="motorcycle148" type="motorcycle_motorcycle" depart="1493.26" departLane="best" departSpeed="max">
        <route edges="E12 E7 E2 E22"/>
    </vehicle>
    <vehicle id="motorcycle149" type="motorcycle_motorcycle" depart="1503.35" departLane="best" departSpeed="max">
        <route edges="E23 E3 E6 E14"/>
    </vehicle>
    <vehicle id="motorcycle150" type="motorcycle_motorcycle" depart="1513.44" departLane="best" departSpeed="max">
        <route edges="E16 E5 E6 E14"/>
    </vehicle>
    <vehicle id="motorcycle151" type="motorcycle_motorcycle" depart="1523.53" departLane="best" departSpeed="max">
        <route edges="E12 E7 E2 E22"/>
    </vehicle>
    <vehicle id="motorcycle152" type="motorcycle_motorcycle" depart="1533.62" departLane="best" departSpeed="max">
        <route edges="E23 E3 E1"/>
    </vehicle>
    <vehicle id="motorcycle153" type="motorcycle_motorcycle" depart="1543.71" departLane="best" departSpeed="max">
        <route edges="E18 E0 E2 E20"/>
    </vehicle>
    <vehicle id="motorcycle154" type="motorcycle_motorcycle" depart="1553.80" departLane="best" departSpeed="max">
        <route edges="E18 E0 E6 E13"/>
    </vehicle>
    <vehicle id="motorcycle155" type="motorcycle_motorcycle" depart="1563.89" departLane="best" departSpeed="max">
        <route edges="E19 E7"/>
    </vehicle>
    <vehicle id="motorcycle156" type="motorcycle_motorcycle" depart="1573.98" departLane="best" departSpeed="max">
        <route edges="E21 E22"/>
    </vehicle>
    <vehicle id="motorcycle157" type="motorcycle_motorcycle" depart="1584.07" departLane="best" departSpeed="max">
        <route edges="E18 E0"/>
    </vehicle>
    <vehicle id="motorcycle158" type="motorcycle_motorcycle" depart="1594.16" departLane="best" departSpeed="max">
        <route edges="E18 E0 E4"/>
    </vehicle>
    <vehicle id="motorcycle159" type="motorcycle_motorcycle" depart="1604.25" departLane="best" departSpeed="max">
        <route edges="E18 E0 E2 E22"/>
    </vehicle>
    <vehicle id="motorcycle160" type="motorcycle_motorcycle" depart="1614.34" departLane="best" departSpeed="max">
        <route edges="E18 E0 E4 E10"/>
    </vehicle>
    <vehicle id="motorcycle161" type="motorcycle_motorcycle" depart="1624.43" departLane="best" departSpeed="max">
        <route edges="E19 E7 E4 E10"/>
    </vehicle>
    <vehicle id="motorcycle162" type="motorcycle_motorcycle" depart="1634.52" departLane="best" departSpeed="max">
        <route edges="E18 E0 E2 E20"/>
    </vehicle>
    <vehicle id="motorcycle163" type="motorcycle_motorcycle" depart="1644.61" departLane="best">
        <route edges="E0 E2 E22"/>
    </vehicle>
    <vehicle id="motorcycle164" type="motorcycle_motorcycle" depart="1654.70" departLane="best" departSpeed="max">
        <route edges="E11 E17"/>
    </vehicle>
    <vehicle id="motorcycle165" type="motorcycle_motorcycle" depart="1664.79" departLane="best">
        <route edges="E1 E15"/>
    </vehicle>
    <vehicle id="motorcycle166" type="motorcycle_motorcycle" depart="1674.87" departLane="best" departSpeed="max">
        <route edges="E12 E14"/>
    </vehicle>
    <vehicle id="motorcycle167" type="motorcycle_motorcycle" depart="1684.96" departLane="best" departSpeed="max">
        <route edges="E16 E5 E1"/>
    </vehicle>
    <vehicle id="motorcycle168" type="motorcycle_motorcycle" depart="1695.05" departLane="best">
        <route edges="E0 E2"/>
    </vehicle>
    <vehicle id="motorcycle169" type="motorcycle_motorcycle" depart="1705.14" departLane="best" departSpeed="max">
        <route edges="E9 E15"/>
    </vehicle>
    <vehicle id="motorcycle170" type="motorcycle_motorcycle" depart="1715.23" departLane="best" departSpeed="max">
        <route edges="E23 E3 E4"/>
    </vehicle>
    <vehicle id="motorcycle171" type="motorcycle_motorcycle" depart="1725.32" departLane="best" departSpeed="max">
        <route edges="E23 E3 E4"/>
    </vehicle>
    <vehicle id="motorcycle172" type="motorcycle_motorcycle" depart="1735.41" departLane="best" departSpeed="max">
        <route edges="E9 E0 E6 E13"/>
    </vehicle>
    <vehicle id="motorcycle173" type="motorcycle_motorcycle" depart="1745.50" departLane="best">
        <route edges="E0 E4 E10"/>
    </vehicle>