<?xml version="1.0" encoding="UTF-8"?>

<!-- generated on 2025-06-25 11:07:47.493296 by randomTrips.py v1_23_1+0000-676720d13f6
<configuration>
    <net-file value="osm.net.xml.gz"/>
    <output-trip-file value="osm.bicycle.trips.xml"/>
    <route-file value="osm.bicycle.rou.xml"/>
    <prefix value="bike"/>
    <trip-attributes value="departLane=&quot;best&quot;"/>
    <fringe-start-attributes value="departSpeed=&quot;max&quot;"/>
    <vehicle-class value="bicycle"/>
    <fringe-factor value="2"/>
    <edge-permission value="bicycle"/>
    <via-edge-types value="highway.motorway,highway.motorway_link,highway.trunk_link,highway.primary_link,highway.secondary_link,highway.tertiary_link"/>
    <max-distance value="8000.0"/>
    <remove-loops value="True"/>
    <validate value="True"/>
    <insertion-density value="60.0"/>
</configuration>
-->

<!-- generated on 2025-06-25 11:07:47 by Eclipse SUMO duarouter Version 1.23.1
<duarouterConfiguration xmlns:xsi="http://www.w3.org/2001/XMLSchema-instance" xsi:noNamespaceSchemaLocation="http://sumo.dlr.de/xsd/duarouterConfiguration.xsd">

    <input>
        <net-file value="osm.net.xml.gz"/>
        <route-files value="osm.bicycle.trips.xml"/>
    </input>

    <output>
        <output-file value="osm.bicycle.trips.xml.tmp"/>
        <alternatives-output value="NUL"/>
        <write-trips value="true"/>
    </output>

    <processing>
        <remove-loops value="true"/>
    </processing>

    <time>
        <begin value="0.0"/>
        <end value="3600.0"/>
    </time>

    <report>
        <no-warnings value="true"/>
        <ignore-errors value="true"/>
        <no-step-log value="true"/>
    </report>

</duarouterConfiguration>
-->

<routes xmlns:xsi="http://www.w3.org/2001/XMLSchema-instance" xsi:noNamespaceSchemaLocation="http://sumo.dlr.de/xsd/routes_file.xsd">
    <vType id="bike_bicycle" vClass="bicycle"/>
    <trip id="bike0" type="bike_bicycle" depart="0.00" departLane="best" from="E17" to="E0"/>
    <trip id="bike1" type="bike_bicycle" depart="10.22" departLane="best" from="E16" to="E15"/>
    <trip id="bike2" type="bike_bicycle" depart="20.44" departLane="best" from="E4" to="E4"/>
    <trip id="bike3" type="bike_bicycle" depart="30.66" departLane="best" from="E5" to="E1"/>
    <trip id="bike4" type="bike_bicycle" depart="40.89" departLane="best" from="E18" to="E0"/>
    <trip id="bike5" type="bike_bicycle" depart="51.11" departLane="best" from="E15" to="E2"/>
    <trip id="bike6" type="bike_bicycle" depart="61.33" departLane="best" from="E18" to="E15"/>
    <trip id="bike7" type="bike_bicycle" depart="71.55" departLane="best" from="E3" to="E2"/>
    <trip id="bike8" type="bike_bicycle" depart="81.77" departLane="best" from="E15" to="E3"/>
    <trip id="bike9" type="bike_bicycle" depart="91.99" departLane="best" from="E5" to="E2"/>
    <trip id="bike10" type="bike_bicycle" depart="102.21" departLane="best" from="E5" to="E4"/>
    <trip id="bike11" type="bike_bicycle" depart="112.43" departLane="best" from="E17" to="E1"/>
    <trip id="bike12" type="bike_bicycle" depart="122.66" departLane="best" from="E7" to="E17"/>
    <trip id="bike13" type="bike_bicycle" depart="132.88" departLane="best" from="E1" to="E1"/>
    <trip id="bike14" type="bike_bicycle" depart="143.10" departLane="best" from="E6" to="E3"/>
    <trip id="bike15" type="bike_bicycle" depart="153.32" departLane="best" from="E5" to="E4"/>
    <trip id="bike16" type="bike_bicycle" depart="163.54" departLane="best" from="E2" to="E7"/>
    <trip id="bike17" type="bike_bicycle" depart="173.76" departLane="best" from="E17" to="E18"/>
    <trip id="bike18" type="bike_bicycle" depart="183.98" departLane="best" from="E16" to="E3"/>
    <trip id="bike19" type="bike_bicycle" depart="194.20" departLane="best" from="E5" to="E2"/>
    <trip id="bike20" type="bike_bicycle" depart="204.43" departLane="best" from="E4" to="E0"/>
    <trip id="bike21" type="bike_bicycle" depart="214.65" departLane="best" from="E15" to="E16"/>
    <trip id="bike22" type="bike_bicycle" depart="224.87" departLane="best" from="E18" to="E15"/>
    <trip id="bike23" type="bike_bicycle" depart="235.09" departLane="best" from="E1" to="E16"/>
    <trip id="bike24" type="bike_bicycle" depart="245.31" departLane="best" from="E3" to="E17"/>
    <trip id="bike25" type="bike_bicycle" depart="255.53" departLane="best" from="E17" to="E15"/>
    <trip id="bike26" type="bike_bicycle" depart="265.75" departLane="best" from="E15" to="E7"/>
    <trip id="bike27" type="bike_bicycle" depart="275.97" departLane="best" from="E3" to="E3"/>
    <trip id="bike28" type="bike_bicycle" depart="286.20" departLane="best" from="E15" to="E4"/>
    <trip id="bike29" type="bike_bicycle" depart="296.42" departLane="best" from="E1" to="E17"/>
    <trip id="bike30" type="bike_bicycle" depart="306.64" departLane="best" from="E7" to="E4"/>
    <trip id="bike31" type="bike_bicycle" depart="316.86" departLane="best" from="E0" to="E4"/>
    <trip id="bike32" type="bike_bicycle" depart="327.08" departLane="best" from="E6" to="E5"/>
    <trip id="bike33" type="bike_bicycle" depart="337.30" departLane="best" from="E18" to="E0"/>
    <trip id="bike34" type="bike_bicycle" depart="347.52" departLane="best" from="E16" to="E16"/>
    <trip id="bike35" type="bike_bicycle" depart="357.74" departLane="best" from="E15" to="E7"/>
    <trip id="bike36" type="bike_bicycle" depart="367.97" departLane="best" from="E6" to="E16"/>
    <trip id="bike37" type="bike_bicycle" depart="378.19" departLane="best" from="E3" to="E17"/>
    <trip id="bike38" type="bike_bicycle" depart="388.41" departLane="best" from="E6" to="E18"/>
    <trip id="bike39" type="bike_bicycle" depart="398.63" departLane="best" from="E16" to="E15"/>
    <trip id="bike40" type="bike_bicycle" depart="408.85" departLane="best" from="E2" to="E16"/>
    <trip id="bike41" type="bike_bicycle" depart="419.07" departLane="best" from="E3" to="E6"/>
    <trip id="bike42" type="bike_bicycle" depart="429.29" departLane="best" from="E17" to="E15"/>
    <trip id="bike43" type="bike_bicycle" depart="439.51" departLane="best" from="E7" to="E2"/>
    <trip id="bike44" type="bike_bicycle" depart="449.74" departLane="best" from="E7" to="E2"/>
    <trip id="bike45" type="bike_bicycle" depart="459.96" departLane="best" from="E1" to="E3"/>
    <trip id="bike46" type="bike_bicycle" depart="470.18" departLane="best" from="E5" to="E18"/>
    <trip id="bike47" type="bike_bicycle" depart="480.40" departLane="best" from="E0" to="E17"/>
    <trip id="bike48" type="bike_bicycle" depart="490.62" departLane="best" from="E7" to="E2"/>
    <trip id="bike49" type="bike_bicycle" depart="500.84" departLane="best" from="E7" to="E6"/>
    <trip id="bike50" type="bike_bicycle" depart="511.06" departLane="best" from="E0" to="E4"/>
    <trip id="bike51" type="bike_bicycle" depart="521.28" departLane="best" from="E0" to="E2"/>
    <trip id="bike52" type="bike_bicycle" depart="531.51" departLane="best" from="E16" to="E3"/>
    <trip id="bike53" type="bike_bicycle" depart="541.73" departLane="best" from="E7" to="E18"/>
    <trip id="bike54" type="bike_bicycle" depart="551.95" departLane="best" from="E18" to="E7"/>
    <trip id="bike55" type="bike_bicycle" depart="562.17" departLane="best" from="E6" to="E16"/>
    <trip id="bike56" type="bike_bicycle" depart="572.39" departLane="best" from="E2" to="E15"/>
    <trip id="bike57" type="bike_bicycle" depart="582.61" departLane="best" from="E6" to="E6"/>
    <trip id="bike58" type="bike_bicycle" depart="592.83" departLane="best" from="E16" to="E3"/>
    <trip id="bike59" type="bike_bicycle" depart="603.05" departLane="best" from="E3" to="E1"/>
    <trip id="bike60" type="bike_bicycle" depart="613.28" departLane="best" from="E5" to="E2"/>
    <trip id="bike61" type="bike_bicycle" depart="623.50" departLane="best" from="E5" to="E2"/>
    <trip id="bike62" type="bike_bicycle" depart="633.72" departLane="best" from="E0" to="E16"/>
    <trip id="bike63" type="bike_bicycle" depart="643.94" departLane="best" from="E18" to="E7"/>
    <trip id="bike64" type="bike_bicycle" depart="654.16" departLane="best" from="E6" to="E5"/>
    <trip id="bike65" type="bike_bicycle" depart="664.38" departLane="best" from="E16" to="E0"/>
    <trip id="bike66" type="bike_bicycle" depart="674.60" departLane="best" from="E5" to="E1"/>
    <trip id="bike67" type="bike_bicycle" depart="684.82" departLane="best" from="E7" to="E18"/>
    <trip id="bike68" type="bike_bicycle" depart="695.05" departLane="best" from="E0" to="E6"/>
    <trip id="bike69" type="bike_bicycle" depart="705.27" departLane="best" from="E5" to="E1"/>
    <trip id="bike70" type="bike_bicycle" depart="715.49" departLane="best" from="E18" to="E2"/>
    <trip id="bike71" type="bike_bicycle" depart="725.71" departLane="best" from="E16" to="E6"/>
    <trip id="bike72" type="bike_bicycle" depart="735.93" departLane="best" from="E18" to="E15"/>
    <trip id="bike73" type="bike_bicycle" depart="746.15" departLane="best" from="E0" to="E4"/>
    <trip id="bike74" type="bike_bicycle" depart="756.37" departLane="best" from="E15" to="E16"/>
    <trip id="bike75" type="bike_bicycle" depart="766.59" departLane="best" from="E7" to="E4"/>
    <trip id="bike76" type="bike_bicycle" depart="776.82" departLane="best" from="E18" to="E2"/>
    <trip id="bike77" type="bike_bicycle" depart="787.04" departLane="best" from="E1" to="E15"/>
    <trip id="bike78" type="bike_bicycle" depart="797.26" departLane="best" from="E17" to="E3"/>
    <trip id="bike79" type="bike_bicycle" depart="807.48" departLane="best" from="E15" to="E15"/>
    <trip id="bike80" type="bike_bicycle" depart="817.70" departLane="best" from="E0" to="E4"/>
    <trip id="bike81" type="bike_bicycle" depart="827.92" departLane="best" from="E15" to="E16"/>
    <trip id="bike82" type="bike_bicycle" depart="838.14" departLane="best" from="E6" to="E0"/>
    <trip id="bike83" type="bike_bicycle" depart="848.36" departLane="best" from="E15" to="E4"/>
    <trip id="bike84" type="bike_bicycle" depart="858.59" departLane="best" from="E15" to="E1"/>
    <trip id="bike85" type="bike_bicycle" depart="868.81" departLane="best" from="E7" to="E2"/>
    <trip id="bike86" type="bike_bicycle" depart="879.03" departLane="best" from="E18" to="E5"/>
    <trip id="bike87" type="bike_bicycle" depart="889.25" departLane="best" from="E5" to="E15"/>
    <trip id="bike88" type="bike_bicycle" depart="899.47" departLane="best" from="E7" to="E18"/>
    <trip id="bike89" type="bike_bicycle" depart="909.69" departLane="best" from="E18" to="E18"/>
    <trip id="bike90" type="bike_bicycle" depart="919.91" departLane="best" from="E4" to="E4"/>
    <trip id="bike91" type="bike_bicycle" depart="930.13" departLane="best" from="E7" to="E1"/>
    <trip id="bike92" type="bike_bicycle" depart="940.36" departLane="best" from="E17" to="E17"/>
    <trip id="bike93" type="bike_bicycle" depart="950.58" departLane="best" from="E5" to="E15"/>
    <trip id="bike94" type="bike_bicycle" depart="960.80" departLane="best" from="E15" to="E18"/>
    <trip id="bike95" type="bike_bicycle" depart="971.02" departLane="best" from="E18" to="E16"/>
    <trip id="bike96" type="bike_bicycle" depart="981.24" departLane="best" from="E15" to="E7"/>
    <trip id="bike97" type="bike_bicycle" depart="991.46" departLane="best" from="E18" to="E6"/>
    <trip id="bike98" type="bike_bicycle" depart="1001.68" departLane="best" from="E2" to="E0"/>
    <trip id="bike99" type="bike_bicycle" depart="1011.90" departLane="best" from="E7" to="E6"/>
    <trip id="bike100" type="bike_bicycle" depart="1022.13" departLane="best" from="E7" to="E7"/>
    <trip id="bike101" type="bike_bicycle" depart="1032.35" departLane="best" from="E5" to="E1"/>
    <trip id="bike102" type="bike_bicycle" depart="1042.57" departLane="best" from="E18" to="E15"/>
    <trip id="bike103" type="bike_bicycle" depart="1052.79" departLane="best" from="E17" to="E0"/>
    <trip id="bike104" type="bike_bicycle" depart="1063.01" departLane="best" from="E17" to="E7"/>
    <trip id="bike105" type="bike_bicycle" depart="1073.23" departLane="best" from="E16" to="E5"/>
    <trip id="bike106" type="bike_bicycle" depart="1083.45" departLane="best" from="E18" to="E18"/>
    <trip id="bike107" type="bike_bicycle" depart="1093.67" departLane="best" from="E7" to="E7"/>
    <trip id="bike108" type="bike_bicycle" depart="1103.90" departLane="best" from="E0" to="E4"/>
    <trip id="bike109" type="bike_bicycle" depart="1114.12" departLane="best" from="E1" to="E16"/>
    <trip id="bike110" type="bike_bicycle" depart="1124.34" departLane="best" from="E7" to="E2"/>
    <trip id="bike111" type="bike_bicycle" depart="1134.56" departLane="best" from="E0" to="E4"/>
    <trip id="bike112" type="bike_bicycle" depart="1144.78" departLane="best" from="E0" to="E4"/>
    <trip id="bike113" type="bike_bicycle" depart="1155.00" departLane="best" from="E0" to="E6"/>
    <trip id="bike114" type="bike_bicycle" depart="1165.22" departLane="best" from="E1" to="E7"/>
    <trip id="bike115" type="bike_bicycle" depart="1175.44" departLane="best" from="E18" to="E15"/>
    <trip id="bike116" type="bike_bicycle" depart="1185.67" departLane="best" from="E3" to="E4"/>
    <trip id="bike117" type="bike_bicycle" depart="1195.89" departLane="best" from="E15" to="E1"/>
    <trip id="bike118" type="bike_bicycle" depart="1206.11" departLane="best" from="E5" to="E15"/>
    <trip id="bike119" type="bike_bicycle" depart="1216.33" departLane="best" from="E3" to="E3"/>
    <trip id="bike120" type="bike_bicycle" depart="1226.55" departLane="best" from="E17" to="E3"/>
    <trip id="bike121" type="bike_bicycle" depart="1236.77" departLane="best" from="E2" to="E7"/>
    <trip id="bike122" type="bike_bicycle" depart="1246.99" departLane="best" from="E15" to="E4"/>
    <trip id="bike123" type="bike_bicycle" depart="1257.21" departLane="best" from="E15" to="E17"/>
    <trip id="bike124" type="bike_bicycle" depart="1267.44" departLane="best" from="E3" to="E16"/>
    <trip id="bike125" type="bike_bicycle" depart="1277.66" departLane="best" from="E16" to="E5"/>
    <trip id="bike126" type="bike_bicycle" depart="1287.88" departLane="best" from="E0" to="E18"/>
    <trip id="bike127" type="bike_bicycle" depart="1298.10" departLane="best" from="E7" to="E7"/>
    <trip id="bike128" type="bike_bicycle" depart="1308.32" departLane="best" from="E18" to="E15"/>
    <trip id="bike129" type="bike_bicycle" depart="1318.54" departLane="best" from="E15" to="E7"/>
    <trip id="bike130" type="bike_bicycle" depart="1328.76" departLane="best" from="E6" to="E6"/>
    <trip id="bike131" type="bike_bicycle" depart="1338.98" departLane="best" from="E17" to="E1"/>
    <trip id="bike132" type="bike_bicycle" depart="1349.21" departLane="best" from="E3" to="E4"/>
    <trip id="bike133" type="bike_bicycle" depart="1359.43" departLane="best" from="E3" to="E1"/>
    <trip id="bike134" type="bike_bicycle" depart="1369.65" departLane="best" from="E17" to="E0"/>
    <trip id="bike135" type="bike_bicycle" depart="1379.87" departLane="best" from="E5" to="E16"/>
    <trip id="bike136" type="bike_bicycle" depart="1390.09" departLane="best" from="E3" to="E1"/>
    <trip id="bike137" type="bike_bicycle" depart="1400.31" departLane="best" from="E1" to="E1"/>
    <trip id="bike138" type="bike_bicycle" depart="1410.53" departLane="best" from="E7" to="E2"/>
    <trip id="bike139" type="bike_bicycle" depart="1420.75" departLane="best" from="E16" to="E3"/>
    <trip id="bike140" type="bike_bicycle" depart="1430.98" departLane="best" from="E4" to="E15"/>
    <trip id="bike141" type="bike_bicycle" depart="1441.20" departLane="best" from="E3" to="E16"/>
    <trip id="bike142" type="bike_bicycle" depart="1451.42" departLane="best" from="E18" to="E6"/>
    <trip id="bike143" type="bike_bicycle" depart="1461.64" departLane="best" from="E5" to="E1"/>
    <trip id="bike144" type="bike_bicycle" depart="1471.86" departLane="best" from="E18" to="E16"/>
    <trip id="bike145" type="bike_bicycle" depart="1482.08" departLane="best" from="E0" to="E6"/>
    <trip id="bike146" type="bike_bicycle" depart="1492.30" departLane="best" from="E3" to="E16"/>
    <trip id="bike147" type="bike_bicycle" depart="1502.52" departLane="best" from="E0" to="E2"/>
    <trip id="bike148" type="bike_bicycle" depart="1512.75" departLane="best" from="E18" to="E0"/>
    <trip id="bike149" type="bike_bicycle" depart="1522.97" departLane="best" from="E0" to="E6"/>
    <trip id="bike150" type="bike_bicycle" depart="1533.19" departLane="best" from="E5" to="E2"/>
    <trip id="bike151" type="bike_bicycle" depart="1543.41" departLane="best" from="E5" to="E2"/>
    <trip id="bike152" type="bike_bicycle" depart="1553.63" departLane="best" from="E1" to="E1"/>
    <trip id="bike153" type="bike_bicycle" depart="1563.85" departLane="best" from="E16" to="E6"/>
    <trip id="bike154" type="bike_bicycle" depart="1574.07" departLane="best" from="E5" to="E6"/>
    <trip id="bike155" type="bike_bicycle" depart="1584.29" departLane="best" from="E5" to="E15"/>
    <trip id="bike156" type="bike_bicycle" depart="1594.52" departLane="best" from="E15" to="E1"/>
    <trip id="bike157" type="bike_bicycle" depart="1604.74" departLane="best" from="E5" to="E6"/>
    <trip id="bike158" type="bike_bicycle" depart="1614.96" departLane="best" from="E17" to="E3"/>
    <trip id="bike159" type="bike_bicycle" depart="1625.18" departLane="best" from="E1" to="E7"/>
    <trip id="bike160" type="bike_bicycle" depart="1635.40" departLane="best" from="E5" to="E1"/>
    <trip id="bike161" type="bike_bicycle" depart="1645.62" departLane="best" from="E5" to="E6"/>
    <trip id="bike162" type="bike_bicycle" depart="1655.84" departLane="best" from="E0" to="E4"/>
    <trip id="bike163" type="bike_bicycle" depart="1666.06" departLane="best" from="E15" to="E7"/>
    <trip id="bike164" type="bike_bicycle" depart="1676.29" departLane="best" from="E5" to="E6"/>
    <trip id="bike165" type="bike_bicycle" depart="1686.51" departLane="best" from="E5" to="E16"/>
    <trip id="bike166" type="bike_bicycle" depart="1696.73" departLane="best" from="E5" to="E1"/>
    <trip id="bike167" type="bike_bicycle" depart="1706.95" departLane="best" from="E6" to="E6"/>
    <trip id="bike168" type="bike_bicycle" depart="1717.17" departLane="best" from="E15" to="E5"/>
    <trip id="bike169" type="bike_bicycle" depart="1727.39" departLane="best" from="E18" to="E16"/>
    <trip id="bike170" type="bike_bicycle" depart="1737.61" departLane="best" from="E5" to="E15"/>
    <trip id="bike171" type="bike_bicycle" depart="1747.83" departLane="best" from="E18" to="E15"/>
    <trip id="bike172" type="bike_bicycle" depart="1758.06" departLane="best" from="E16" to="E6"/>
    <trip id="bike173" type="bike_bicycle" depart="1768.28" departLane="best" from="E15" to="E16"/>
    <trip id="bike174" type="bike_bicycle" depart="1778.50" departLane="best" from="E3" to="E17"/>
    <trip id="bike175" type="bike_bicycle" depart="1788.72" departLane="best" from="E7" to="E2"/>
    <trip id="bike176" type="bike_bicycle" depart="1798.94" departLane="best" from="E7" to="E1"/>
    <trip id="bike177" type="bike_bicycle" depart="1809.16" departLane="best" from="E7" to="E15"/>
    <trip id="bike178" type="bike_bicycle" depart="1819.38" departLane="best" from="E15" to="E16"/>
    <trip id="bike179" type="bike_bicycle" depart="1829.60" departLane="best" from="E7" to="E18"/>
    <trip id="bike180" type="bike_bicycle" depart="1839.83" departLane="best" from="E3" to="E16"/>
    <trip id="bike181" type="bike_bicycle" depart="1850.05" departLane="best" from="E3" to="E2"/>
    <trip id="bike182" type="bike_bicycle" depart="1860.27" departLane="best" from="E17" to="E18"/>
    <trip id="bike183" type="bike_bicycle" depart="1870.49" departLane="best" from="E16" to="E17"/>
    <trip id="bike184" type="bike_bicycle" depart="1880.71" departLane="best" from="E18" to="E7"/>
    <trip id="bike185" type="bike_bicycle" depart="1890.93" departLane="best" from="E0" to="E4"/>
    <trip id="bike186" type="bike_bicycle" depart="1901.15" departLane="best" from="E4" to="E4"/>
    <trip id="bike187" type="bike_bicycle" depart="1911.37" departLane="best" from="E17" to="E0"/>
    <trip id="bike188" type="bike_bicycle" depart="1921.60" departLane="best" from="E3" to="E16"/>
    <trip id="bike189" type="bike_bicycle" depart="1931.82" departLane="best" from="E16" to="E6"/>
    <trip id="bike190" type="bike_bicycle" depart="1942.04" departLane="best" from="E3" to="E16"/>
    <trip id="bike191" type="bike_bicycle" depart="1952.26" departLane="best" from="E16" to="E17"/>
    <trip id="bike192" type="bike_bicycle" depart="1962.48" departLane="best" from="E17" to="E16"/>
    <trip id="bike193" type="bike_bicycle" depart="1972.70" departLane="best" from="E7" to="E18"/>
    <trip id="bike194" type="bike_bicycle" depart="1982.92" departLane="best" from="E7" to="E4"/>
    <trip id="bike195" type="bike_bicycle" depart="1993.14" departLane="best" from="E6" to="E3"/>
    <trip id="bike196" type="bike_bicycle" depart="2003.37" departLane="best" from="E16" to="E2"/>
    <trip id="bike197" type="bike_bicycle" depart="2013.59" departLane="best" from="E0" to="E16"/>
    <trip id="bike198" type="bike_bicycle" depart="2023.81" departLane="best" from="E18" to="E2"/>
    <trip id="bike199" type="bike_bicycle" depart="2034.03" departLane="best" from="E17" to="E18"/>
    <trip id="bike200" type="bike_bicycle" depart="2044.25" departLane="best" from="E18" to="E15"/>
    <trip id="bike201" type="bike_bicycle" depart="2054.47" departLane="best" from="E18" to="E6"/>
    <trip id="bike202" type="bike_bicycle" depart="2064.69" departLane="best" from="E5" to="E15"/>
    <trip id="bike203" type="bike_bicycle" depart="2074.91" departLane="best" from="E7" to="E2"/>
    <trip id="bike204" type="bike_bicycle" depart="2085.14" departLane="best" from="E3" to="E17"/>
    <trip id="bike205" type="bike_bicycle" depart="2095.36" departLane="best" from="E5" to="E5"/>
    <trip id="bike206" type="bike_bicycle" depart="2105.58" departLane="best" from="E4" to="E15"/>
    <trip id="bike207" type="bike_bicycle" depart="2115.80" departLane="best" from="E18" to="E0"/>
    <trip id="bike208" type="bike_bicycle" depart="2126.02" departLane="best" from="E15" to="E18"/>
    <trip id="bike209" type="bike_bicycle" depart="2136.24" departLane="best" from="E6" to="E0"/>
    <trip id="bike210" type="bike_bicycle" depart="2146.46" departLane="best" from="E17" to="E3"/>
    <trip id="bike211" type="bike_bicycle" depart="2156.69" departLane="best" from="E15" to="E4"/>
    <trip id="bike212" type="bike_bicycle" depart="2166.91" departLane="best" from="E18" to="E15"/>
    <trip id="bike213" type="bike_bicycle" depart="2177.13" departLane="best" from="E17" to="E0"/>
    <trip id="bike214" type="bike_bicycle" depart="2187.35" departLane="best" from="E5" to="E5"/>
    <trip id="bike215" type="bike_bicycle" depart="2197.57" departLane="best" from="E7" to="E18"/>
    <trip id="bike216" type="bike_bicycle" depart="2207.79" departLane="best" from="E15" to="E7"/>
    <trip id="bike217" type="bike_bicycle" depart="2218.01" departLane="best" from="E2" to="E0"/>
    <trip id="bike218" type="bike_bicycle" depart="2228.23" departLane="best" from="E15" to="E16"/>
    <trip id="bike219" type="bike_bicycle" depart="2238.46" departLane="best" from="E18" to="E5"/>
    <trip id="bike220" type="bike_bicycle" depart="2248.68" departLane="best" from="E4" to="E7"/>
    <trip id="bike221" type="bike_bicycle" depart="2258.90" departLane="best" from="E3" to="E1"/>
    <trip id="bike222" type="bike_bicycle" depart="2269.12" departLane="best" from="E6" to="E3"/>
    <trip id="bike223" type="bike_bicycle" depart="2279.34" departLane="best" from="E0" to="E2"/>
    <trip id="bike224" type="bike_bicycle" depart="2289.56" departLane="best" from="E5" to="E2"/>
    <trip id="bike225" type="bike_bicycle" depart="2299.78" departLane="best" from="E3" to="E4"/>
    <trip id="bike226" type="bike_bicycle" depart="2310.00" departLane="best" from="E18" to="E16"/>
    <trip id="bike227" type="bike_bicycle" depart="2320.23" departLane="best" from="E15" to="E3"/>
    <trip id="bike228" type="bike_bicycle" depart="2330.45" departLane="best" from="E5" to="E2"/>
    <trip id="bike229" type="bike_bicycle" depart="2340.67" departLane="best" from="E3" to="E16"/>
    <trip id="bike230" type="bike_bicycle" depart="2350.89" departLane="best" from="E0" to="E16"/>
    <trip id="bike231" type="bike_bicycle" depart="2361.11" departLane="best" from="E16" to="E16"/>
    <trip id="bike232" type="bike_bicycle" depart="2371.33" departLane="best" from="E7" to="E1"/>
    <trip id="bike233" type="bike_bicycle" depart="2381.55" departLane="best" from="E15" to="E4"/>
    <trip id="bike234" type="bike_bicycle" depart="2391.77" departLane="best" from="E4" to="E0"/>
    <trip id="bike235" type="bike_bicycle" depart="2402.00" departLane="best" from="E17" to="E18"/>
    <trip id="bike236" type="bike_bicycle" depart="2412.22" departLane="best" from="E17" to="E15"/>
    <trip id="bike237" type="bike_bicycle" depart="2422.44" departLane="best" from="E18" to="E6"/>
    <trip id="bike238" type="bike_bicycle" depart="2432.66" departLane="best" from="E3" to="E4"/>
    <trip id="bike239" type="bike_bicycle" depart="2442.88" departLane="best" from="E6" to="E5"/>
    <trip id="bike240" type="bike_bicycle" depart="2453.10" departLane="best" from="E17" to="E0"/>
    <trip id="bike241" type="bike_bicycle" depart="2463.32" departLane="best" from="E16" to="E5"/>
    <trip id="bike242" type="bike_bicycle" depart="2473.54" departLane="best" from="E5" to="E1"/>
    <trip id="bike243" type="bike_bicycle" depart="2483.77" departLane="best" from="E18" to="E4"/>
    <trip id="bike244" type="bike_bicycle" depart="2493.99" departLane="best" from="E0" to="E4"/>
    <trip id="bike245" type="bike_bicycle" depart="2504.21" departLane="best" from="E15" to="E15"/>
    <trip id="bike246" type="bike_bicycle" depart="2514.43" departLane="best" from="E18" to="E0"/>
    <trip id="bike247" type="bike_bicycle" depart="2524.65" departLane="best" from="E17" to="E4"/>
    <trip id="bike248" type="bike_bicycle" depart="2534.87" departLane="best" from="E17" to="E1"/>
    <trip id="bike249" type="bike_bicycle" depart="2545.09" departLane="best" from="E18" to="E15"/>
    <trip id="bike250" type="bike_bicycle" depart="2555.31" departLane="best" from="E17" to="E0"/>
    <trip id="bike251" type="bike_bicycle" depart="2565.54" departLane="best" from="E17" to="E18"/>
    <trip id="bike252" type="bike_bicycle" depart="2575.76" departLane="best" from="E0" to="E4"/>
    <trip id="bike253" type="bike_bicycle" depart="2585.98" departLane="best" from="E7" to="E18"/>
    <trip id="bike254" type="bike_bicycle" depart="2596.20" departLane="best" from="E0" to="E17"/>
    <trip id="bike255" type="bike_bicycle" depart="2606.42" departLane="best" from="E15" to="E16"/>
    <trip id="bike256" type="bike_bicycle" depart="2616.64" departLane="best" from="E16" to="E17"/>
    <trip id="bike257" type="bike_bicycle" depart="2626.86" departLane="best" from="E5" to="E5"/>
    <trip id="bike258" type="bike_bicycle" depart="2637.08" departLane="best" from="E16" to="E0"/>
    <trip id="bike259" type="bike_bicycle" depart="2647.31" departLane="best" from="E0" to="E2"/>
    <trip id="bike260" type="bike_bicycle" depart="2657.53" departLane="best" from="E7" to="E17"/>
    <trip id="bike261" type="bike_bicycle" depart="2667.75" departLane="best" from="E3" to="E6"/>
    <trip id="bike262" type="bike_bicycle" depart="2677.97" departLane="best" from="E3" to="E6"/>
    <trip id="bike263" type="bike_bicycle" depart="2688.19" departLane="best" from="E7" to="E15"/>
    <trip id="bike264" type="bike_bicycle" depart="2698.41" departLane="best" from="E0" to="E1"/>
    <trip id="bike265" type="bike_bicycle" depart="2708.63" departLane="best" from="E7" to="E4"/>
    <trip id="bike266" type="bike_bicycle" depart="2718.85" departLane="best" from="E2" to="E15"/>
    <trip id="bike267" type="bike_bicycle" depart="2729.08" departLane="best" from="E3" to="E6"/>
    <trip id="bike268" type="bike_bicycle" depart="2739.30" departLane="best" from="E15" to="E3"/>
    <trip id="bike269" type="bike_bicycle" depart="2749.52" departLane="best" from="E3" to="E1"/>
    <trip id="bike270" type="bike_bicycle" depart="2759.74" departLane="best" from="E5" to="E1"/>
    <trip id="bike271" type="bike_bicycle" depart="2769.96" departLane="best" from="E7" to="E2"/>
    <trip id="bike272" type="bike_bicycle" depart="2780.18" departLane="best" from="E16" to="E17"/>
    <trip id="bike273" type="bike_bicycle" depart="2790.40" departLane="best" from="E7" to="E17"/>
    <trip id="bike274" type="bike_bicycle" depart="2800.62" departLane="best" from="E4" to="E0"/>
    <trip id="bike275" type="bike_bicycle" depart="2810.85" departLane="best" from="E4" to="E3"/>
    <trip id="bike276" type="bike_bicycle" depart="2821.07" departLane="best" from="E1" to="E5"/>
    <trip id="bike277" type="bike_bicycle" depart="2831.29" departLane="best" from="E6" to="E3"/>
    <trip id="bike278" type="bike_bicycle" depart="2841.51" departLane="best" from="E1" to="E7"/>
    <trip id="bike279" type="bike_bicycle" depart="2851.73" departLane="best" from="E16" to="E17"/>
    <trip id="bike280" type="bike_bicycle" depart="2861.95" departLane="best" from="E18" to="E17"/>
    <trip id="bike281" type="bike_bicycle" depart="2872.17" departLane="best" from="E0" to="E17"/>
    <trip id="bike282" type="bike_bicycle" depart="2882.39" departLane="best" from="E6" to="E5"/>
    <trip id="bike283" type="bike_bicycle" depart="2892.62" departLane="best" from="E1" to="E7"/>
    <trip id="bike284" type="bike_bicycle" depart="2902.84" departLane="best" from="E3" to="E6"/>
    <trip id="bike285" type="bike_bicycle" depart="2913.06" departLane="best" from="E4" to="E18"/>