<?xml version="1.0" encoding="UTF-8"?>

<!-- generated on 2025-07-03 17:54:23.982471 by randomTrips.py v1_23_1+0000-676720d13f6
<configuration>
    <net-file value="osm.net.xml.gz"/>
    <output-trip-file value="osm.pedestrian.trips.xml"/>
    <route-file value="osm.pedestrian.rou.xml"/>
    <pedestrians value="True"/>
    <prefix value="ped"/>
    <vehicle-class value="pedestrian"/>
    <fringe-factor value="1"/>
    <max-distance value="2000.0"/>
    <insertion-density value="100.0"/>
</configuration>
-->

<!-- generated on 2025-07-03 17:54:23 by Eclipse SUMO duarouter Version 1.23.1
<duarouterConfiguration xmlns:xsi="http://www.w3.org/2001/XMLSchema-instance" xsi:noNamespaceSchemaLocation="http://sumo.dlr.de/xsd/duarouterConfiguration.xsd">

    <input>
        <net-file value="osm.net.xml.gz"/>
        <route-files value="osm.pedestrian.trips.xml"/>
    </input>

    <output>
        <output-file value="osm.pedestrian.rou.xml"/>
        <alternatives-output value="NUL"/>
    </output>

    <time>
        <begin value="0.0"/>
        <end value="3600.0"/>
    </time>

    <report>
        <no-warnings value="true"/>
        <ignore-errors value="true"/>
        <no-step-log value="true"/>
    </report>

</duarouterConfiguration>
-->

<routes xmlns:xsi="http://www.w3.org/2001/XMLSchema-instance" xsi:noNamespaceSchemaLocation="http://sumo.dlr.de/xsd/routes_file.xsd">
    <vType id="ped_pedestrian" vClass="pedestrian"/>
    <person id="ped0" type="ped_pedestrian" depart="0.00">
        <walk edges="E22 E2 E0"/>
    </person>
    <person id="ped1" type="ped_pedestrian" depart="3.69">
        <walk edges="E14 E13"/>
    </person>
    <person id="ped2" type="ped_pedestrian" depart="7.37">
        <walk edges="E3 E23"/>
    </person>
    <person id="ped3" type="ped_pedestrian" depart="11.06">
        <walk edges="E7 E5 E10"/>
    </person>
    <person id="ped4" type="ped_pedestrian" depart="14.75">
        <walk edges="E18 E0"/>
    </person>
    <person id="ped5" type="ped_pedestrian" depart="18.43">
        <walk edges="E13 E7 E2"/>
    </person>
    <person id="ped6" type="ped_pedestrian" depart="22.12">
        <walk edges="E0 E7 E12"/>
    </person>
    <person id="ped7" type="ped_pedestrian" depart="25.81">
        <walk edges="E22 E20"/>
    </person>
    <person id="ped8" type="ped_pedestrian" depart="29.49">
        <walk edges="E13 E7 E2 E21"/>
    </person>
    <person id="ped9" type="ped_pedestrian" depart="33.18">
        <walk edges="E5 E0"/>
    </person>
    <person id="ped10" type="ped_pedestrian" depart="36.87">
        <walk edges="E5 E2 E23"/>
    </person>
    <person id="ped11" type="ped_pedestrian" depart="40.55">
        <walk edges="E16 E11"/>
    </person>
    <person id="ped12" type="ped_pedestrian" depart="44.24">
        <walk edges="E8 E0 E5 E16"/>
    </person>
    <person id="ped13" type="ped_pedestrian" depart="47.93">
        <walk edges="E10"/>
    </person>
    <person id="ped14" type="ped_pedestrian" depart="51.61">
        <walk edges="E6 E2 E21"/>
    </person>
    <person id="ped15" type="ped_pedestrian" depart="55.30">
        <walk edges="E5 E2 E3"/>
    </person>
    <person id="ped16" type="ped_pedestrian" depart="58.99">
        <walk edges="E2 E0 E9"/>
    </person>
    <person id="ped17" type="ped_pedestrian" depart="62.68">
        <walk edges="E17 E5 E2 E20"/>
    </person>
    <person id="ped18" type="ped_pedestrian" depart="66.36">
        <walk edges="E5 E2 E21"/>
    </person>
    <person id="ped19" type="ped_pedestrian" depart="70.05">
        <walk edges="E6 E2 E20"/>
    </person>
    <person id="ped20" type="ped_pedestrian" depart="73.74">
        <walk edges="E23 E2 E1"/>
    </person>
    <person id="ped21" type="ped_pedestrian" depart="77.42">
        <walk edges="E13 E14"/>
    </person>
    <person id="ped22" type="ped_pedestrian" depart="81.11">
        <walk edges="E1 E7 E13"/>
    </person>
    <person id="ped23" type="ped_pedestrian" depart="84.80">
        <walk edges="E10 E5 E7 E14"/>
    </person>
    <person id="ped24" type="ped_pedestrian" depart="88.48">
        <walk edges="E22 E2 E5 E16"/>
    </person>
    <person id="ped25" type="ped_pedestrian" depart="92.17">
        <walk edges="E16 E5 E7 E13"/>
    </person>
    <person id="ped26" type="ped_pedestrian" depart="95.86">
        <walk edges="E14 E7 E0 E8"/>
    </person>
    <person id="ped27" type="ped_pedestrian" depart="99.54">
        <walk edges="E22 E21"/>
    </person>
    <person id="ped28" type="ped_pedestrian" depart="103.23">
        <walk edges="E12 E7 E2 E3"/>
    </person>
    <person id="ped29" type="ped_pedestrian" depart="106.92">
        <walk edges="E11 E17"/>
    </person>
    <person id="ped30" type="ped_pedestrian" depart="110.60">
        <walk edges="E9 E0 E2 E22"/>
    </person>
    <person id="ped31" type="ped_pedestrian" depart="114.29">
        <walk edges="E20 E23"/>
    </person>
    <person id="ped32" type="ped_pedestrian" depart="117.98">
        <walk edges="E6 E4"/>
    </person>
    <person id="ped33" type="ped_pedestrian" depart="121.66">
        <walk edges="E13 E7 E0"/>
    </person>
    <person id="ped34" type="ped_pedestrian" depart="125.35">
        <walk edges="E15 E0 E7 E14"/>
    </person>
    <person id="ped35" type="ped_pedestrian" depart="129.04">
        <walk edges="E13 E7 E0 E8"/>
    </person>
    <person id="ped36" type="ped_pedestrian" depart="132.72">
        <walk edges="E7 E0 E15"/>
    </person>
    <person id="ped37" type="ped_pedestrian" depart="136.41">
        <walk edges="E22 E2 E5 E17"/>
    </person>
    <person id="ped38" type="ped_pedestrian" depart="140.10">
        <walk edges="E7 E19"/>
    </person>
    <person id="ped39" type="ped_pedestrian" depart="143.78">
        <walk edges="E14 E13"/>
    </person>
    <person id="ped40" type="ped_pedestrian" depart="147.47">
        <walk edges="E20 E2 E7 E14"/>
    </person>
    <person id="ped41" type="ped_pedestrian" depart="151.16">
        <walk edges="E21 E2 E7"/>
    </person>
    <person id="ped42" type="ped_pedestrian" depart="154.84">
        <walk edges="E17 E5 E7 E13"/>
    </person>
    <person id="ped43" type="ped_pedestrian" depart="158.53">
        <walk edges="E9 E0 E2"/>
    </person>
    <person id="ped44" type="ped_pedestrian" depart="162.22">
        <walk edges="E10 E5 E1"/>
    </person>
    <person id="ped45" type="ped_pedestrian" depart="165.90">
        <walk edges="E10 E5 E2 E22"/>
    </person>
    <person id="ped46" type="ped_pedestrian" depart="169.59">
        <walk edges="E5 E0 E18"/>
    </person>
    <person id="ped47" type="ped_pedestrian" depart="173.28">
        <walk edges="E1 E5 E17"/>
    </person>
    <person id="ped48" type="ped_pedestrian" depart="176.96">
        <walk edges="E9 E0 E2"/>
    </person>
    <person id="ped49" type="ped_pedestrian" depart="180.65">
        <walk edges="E9 E0 E6"/>
    </person>
    <person id="ped50" type="ped_pedestrian" depart="184.34">
        <walk edges="E0 E2 E3"/>
    </person>
    <person id="ped51" type="ped_pedestrian" depart="188.03">
        <walk edges="E23 E2"/>
    </person>
    <person id="ped52" type="ped_pedestrian" depart="191.71">
        <walk edges="E14 E7 E2 E22"/>
    </person>
    <person id="ped53" type="ped_pedestrian" depart="195.40">
        <walk edges="E10 E5 E0 E18"/>
    </person>
    <person id="ped54" type="ped_pedestrian" depart="199.09">
        <walk edges="E18 E8"/>
    </person>
    <person id="ped55" type="ped_pedestrian" depart="202.77">
        <walk edges="E7 E14"/>
    </person>
    <person id="ped56" type="ped_pedestrian" depart="206.46">
        <walk edges="E2 E7 E12"/>
    </person>
    <person id="ped57" type="ped_pedestrian" depart="210.15">
        <walk edges="E7 E6"/>
    </person>
    <person id="ped58" type="ped_pedestrian" depart="213.83">
        <walk edges="E15 E0 E2 E22"/>
    </person>
    <person id="ped59" type="ped_pedestrian" depart="217.52">
        <walk edges="E21 E2 E5 E11"/>
    </person>
    <person id="ped60" type="ped_pedestrian" depart="221.21">
        <walk edges="E4 E2"/>
    </person>
    <person id="ped61" type="ped_pedestrian" depart="224.89">
        <walk edges="E4 E2"/>
    </person>
    <person id="ped62" type="ped_pedestrian" depart="228.58">
        <walk edges="E0 E15"/>
    </person>
    <person id="ped63" type="ped_pedestrian" depart="232.27">
        <walk edges="E0 E8"/>
    </person>
    <person id="ped64" type="ped_pedestrian" depart="235.95">
        <walk edges="E7 E5"/>
    </person>
    <person id="ped65" type="ped_pedestrian" depart="239.64">
        <walk edges="E15 E0 E1"/>
    </person>
    <person id="ped66" type="ped_pedestrian" depart="243.33">
        <walk edges="E7 E0 E8"/>
    </person>
    <person id="ped67" type="ped_pedestrian" depart="247.01">
        <walk edges="E10 E5 E7 E19"/>
    </person>
    <person id="ped68" type="ped_pedestrian" depart="250.70">
        <walk edges="E1 E4"/>
    </person>
    <person id="ped69" type="ped_pedestrian" depart="254.39">
        <walk edges="E4 E5 E11"/>
    </person>
    <person id="ped70" type="ped_pedestrian" depart="258.07">
        <walk edges="E19 E7 E2 E20"/>
    </person>
    <person id="ped71" type="ped_pedestrian" depart="261.76">
        <walk edges="E14 E7 E6"/>
    </person>
    <person id="ped72" type="ped_pedestrian" depart="265.45">
        <walk edges="E18 E0 E7 E13"/>
    </person>
    <person id="ped73" type="ped_pedestrian" depart="269.13">
        <walk edges="E2 E3"/>
    </person>
    <person id="ped74" type="ped_pedestrian" depart="272.82">
        <walk edges="E12 E7 E0 E15"/>
    </person>
    <person id="ped75" type="ped_pedestrian" depart="276.51">
        <walk edges="E9 E0 E2 E22"/>
    </person>
    <person id="ped76" type="ped_pedestrian" depart="280.19">
        <walk edges="E18 E0 E2"/>
    </person>
    <person id="ped77" type="ped_pedestrian" depart="283.88">
        <walk edges="E10 E5 E7 E13"/>
    </person>
    <person id="ped78" type="ped_pedestrian" depart="287.57">
        <walk edges="E16 E5 E2 E21"/>
    </person>
    <person id="ped79" type="ped_pedestrian" depart="291.25">
        <walk edges="E13"/>
    </person>
    <person id="ped80" type="ped_pedestrian" depart="294.94">
        <walk edges="E1 E2 E22"/>
    </person>
    <person id="ped81" type="ped_pedestrian" depart="298.63">
        <walk edges="E13 E7"/>
    </person>
    <person id="ped82" type="ped_pedestrian" depart="302.31">
        <walk edges="E6 E1"/>
    </person>
    <person id="ped83" type="ped_pedestrian" depart="306.00">
        <walk edges="E13 E7 E2 E23"/>
    </person>
    <person id="ped84" type="ped_pedestrian" depart="309.69">
        <walk edges="E13 E7 E5 E11"/>
    </person>
    <person id="ped85" type="ped_pedestrian" depart="313.38">
        <walk edges="E8 E0 E2 E20"/>
    </person>
    <person id="ped86" type="ped_pedestrian" depart="317.06">
        <walk edges="E19 E7 E4"/>
    </person>
    <person id="ped87" type="ped_pedestrian" depart="320.75">
        <walk edges="E5 E7 E12"/>
    </person>
    <person id="ped88" type="ped_pedestrian" depart="324.44">
        <walk edges="E10 E5 E0 E18"/>
    </person>
    <person id="ped89" type="ped_pedestrian" depart="328.12">
        <walk edges="E18 E0 E7 E19"/>
    </person>
    <person id="ped90" type="ped_pedestrian" depart="331.81">
        <walk edges="E3 E23"/>
    </person>
    <person id="ped91" type="ped_pedestrian" depart="335.50">
        <walk edges="E9 E0 E5 E10"/>
    </person>
    <person id="ped92" type="ped_pedestrian" depart="339.18">
        <walk edges="E17 E16"/>
    </person>
    <person id="ped93" type="ped_pedestrian" depart="342.87">
        <walk edges="E6 E7 E13"/>
    </person>
    <person id="ped94" type="ped_pedestrian" depart="346.56">
        <walk edges="E12 E7 E0 E18"/>
    </person>
    <person id="ped95" type="ped_pedestrian" depart="350.24">
        <walk edges="E18 E0 E7 E14"/>
    </person>
    <person id="ped96" type="ped_pedestrian" depart="353.93">
        <walk edges="E13 E7 E0 E8"/>
    </person>
    <person id="ped97" type="ped_pedestrian" depart="357.62">
        <walk edges="E18 E0 E6"/>
    </person>
    <person id="ped98" type="ped_pedestrian" depart="361.30">
        <walk edges="E20 E2 E1"/>
    </person>
    <person id="ped99" type="ped_pedestrian" depart="364.99">
        <walk edges="E9 E0 E6"/>
    </person>
    <person id="ped100" type="ped_pedestrian" depart="368.68">
        <walk edges="E9 E8"/>
    </person>
    <person id="ped101" type="ped_pedestrian" depart="372.36">
        <walk edges="E6 E5 E11"/>
    </person>
    <person id="ped102" type="ped_pedestrian" depart="376.05">
        <walk edges="E19 E13"/>
    </person>
    <person id="ped103" type="ped_pedestrian" depart="379.74">
        <walk edges="E17 E5 E1"/>
    </person>
    <person id="ped104" type="ped_pedestrian" depart="383.42">
        <walk edges="E17 E5 E0 E9"/>
    </person>
    <person id="ped105" type="ped_pedestrian" depart="387.11">
        <walk edges="E14 E7 E4"/>
    </person>
    <person id="ped106" type="ped_pedestrian" depart="390.80">
        <walk edges="E18"/>
    </person>
    <person id="ped107" type="ped_pedestrian" depart="394.48">
        <walk edges="E8 E9"/>
    </person>
    <person id="ped108" type="ped_pedestrian" depart="398.17">
        <walk edges="E20 E3"/>
    </person>
    <person id="ped109" type="ped_pedestrian" depart="401.86">
        <walk edges="E11 E5 E0 E15"/>
    </person>
    <person id="ped110" type="ped_pedestrian" depart="405.54">
        <walk edges="E9 E0 E2 E20"/>
    </person>
    <person id="ped111" type="ped_pedestrian" depart="409.23">
        <walk edges="E20 E3"/>
    </person>
    <person id="ped112" type="ped_pedestrian" depart="412.92">
        <walk edges="E1 E2 E21"/>
    </person>
    <person id="ped113" type="ped_pedestrian" depart="416.60">
        <walk edges="E2 E6"/>
    </person>
    <person id="ped114" type="ped_pedestrian" depart="420.29">
        <walk edges="E11 E5 E0 E9"/>
    </person>
    <person id="ped115" type="ped_pedestrian" depart="423.98">
        <walk edges="E1 E7 E12"/>
    </person>
    <person id="ped116" type="ped_pedestrian" depart="427.67">
        <walk edges="E21 E23"/>
    </person>
    <person id="ped117" type="ped_pedestrian" depart="431.35">
        <walk edges="E13 E7 E5 E10"/>
    </person>
    <person id="ped118" type="ped_pedestrian" depart="435.04">
        <walk edges="E7 E13"/>
    </person>
    <person id="ped119" type="ped_pedestrian" depart="438.73">
        <walk edges="E21"/>
    </person>
    <person id="ped120" type="ped_pedestrian" depart="442.41">
        <walk edges="E18 E0 E2 E21"/>
    </person>
    <person id="ped121" type="ped_pedestrian" depart="446.10">
        <walk edges="E2 E0 E8"/>
    </person>
    <person id="ped122" type="ped_pedestrian" depart="449.79">
        <walk edges="E12 E7 E2 E3"/>
    </person>
    <person id="ped123" type="ped_pedestrian" depart="453.47">
        <walk edges="E13 E7 E5 E17"/>
    </person>
    <person id="ped124" type="ped_pedestrian" depart="457.16">
        <walk edges="E23 E2 E0 E15"/>
    </person>
    <person id="ped125" type="ped_pedestrian" depart="460.85">
        <walk edges="E15 E0 E4"/>
    </person>
    <person id="ped126" type="ped_pedestrian" depart="464.53">
        <walk edges="E1 E0 E18"/>
    </person>
    <person id="ped127" type="ped_pedestrian" depart="468.22">
        <walk edges="E9"/>
    </person>
    <person id="ped128" type="ped_pedestrian" depart="471.91">
        <walk edges="E1 E7 E13"/>
    </person>
    <person id="ped129" type="ped_pedestrian" depart="475.59">
        <walk edges="E14 E7 E0 E8"/>
    </person>
    <person id="ped130" type="ped_pedestrian" depart="479.28">
        <walk edges="E7"/>
    </person>
    <person id="ped131" type="ped_pedestrian" depart="482.97">
        <walk edges="E16 E11"/>
    </person>
    <person id="ped132" type="ped_pedestrian" depart="486.65">
        <walk edges="E6 E2 E23"/>
    </person>
    <person id="ped133" type="ped_pedestrian" depart="490.34">
        <walk edges="E21 E2 E0 E9"/>
    </person>
    <person id="ped134" type="ped_pedestrian" depart="494.03">
        <walk edges="E22 E2 E0"/>
    </person>
    <person id="ped135" type="ped_pedestrian" depart="497.71">
        <walk edges="E5 E0 E15"/>
    </person>
    <person id="ped136" type="ped_pedestrian" depart="501.40">
        <walk edges="E22 E2 E0 E8"/>
    </person>
    <person id="ped137" type="ped_pedestrian" depart="505.09">
        <walk edges="E11 E10"/>
    </person>
    <person id="ped138" type="ped_pedestrian" depart="508.77">
        <walk edges="E10 E5 E2 E20"/>
    </person>
    <person id="ped139" type="ped_pedestrian" depart="512.46">
        <walk edges="E14 E7 E2 E21"/>
    </person>
    <person id="ped140" type="ped_pedestrian" depart="516.15">
        <walk edges="E3 E2 E7 E12"/>
    </person>
    <person id="ped141" type="ped_pedestrian" depart="519.83">
        <walk edges="E22 E2 E7 E14"/>
    </person>
    <person id="ped142" type="ped_pedestrian" depart="523.52">
        <walk edges="E19 E7"/>
    </person>
    <person id="ped143" type="ped_pedestrian" depart="527.21">
        <walk edges="E6 E5 E10"/>
    </person>
    <person id="ped144" type="ped_pedestrian" depart="530.89">
        <walk edges="E18 E0 E7 E14"/>
    </person>
    <person id="ped145" type="ped_pedestrian" depart="534.58">
        <walk edges="E0 E4"/>
    </person>
    <person id="ped146" type="ped_pedestrian" depart="538.27">
        <walk edges="E22 E2 E7 E14"/>
    </person>
    <person id="ped147" type="ped_pedestrian" depart="541.95">
        <walk edges="E3 E20"/>
    </person>
    <person id="ped148" type="ped_pedestrian" depart="545.64">
        <walk edges="E18 E0"/>
    </person>
    <person id="ped149" type="ped_pedestrian" depart="549.33">
        <walk edges="E1 E7"/>
    </person>
    <person id="ped150" type="ped_pedestrian" depart="553.02">
        <walk edges="E7 E2 E20"/>
    </person>
    <person id="ped151" type="ped_pedestrian" depart="556.70">
        <walk edges="E6 E2 E20"/>
    </person>
    <person id="ped152" type="ped_pedestrian" depart="560.39">
        <walk edges="E11"/>
    </person>
    <person id="ped153" type="ped_pedestrian" depart="564.08">
        <walk edges="E15 E0 E7"/>
    </person>
    <person id="ped154" type="ped_pedestrian" depart="567.76">
        <walk edges="E5 E6"/>
    </person>
    <person id="ped155" type="ped_pedestrian" depart="571.45">
        <walk edges="E7 E13"/>
    </person>
    <person id="ped156" type="ped_pedestrian" depart="575.14">
        <walk edges="E13 E7 E5 E10"/>
    </person>
    <person id="ped157" type="ped_pedestrian" depart="578.82">
        <walk edges="E4 E7"/>
    </person>
    <person id="ped158" type="ped_pedestrian" depart="582.51">
        <walk edges="E17 E5 E2 E21"/>
    </person>
    <person id="ped159" type="ped_pedestrian" depart="586.20">
        <walk edges="E11 E5 E0 E8"/>
    </person>
    <person id="ped160" type="ped_pedestrian" depart="589.88">
        <walk edges="E6 E0 E9"/>
    </person>
    <person id="ped161" type="ped_pedestrian" depart="593.57">
        <walk edges="E5 E7"/>
    </person>
    <person id="ped162" type="ped_pedestrian" depart="597.26">
        <walk edges="E0 E2 E3"/>
    </person>
    <person id="ped163" type="ped_pedestrian" depart="600.94">
        <walk edges="E15 E8"/>
    </person>
    <person id="ped164" type="ped_pedestrian" depart="604.63">
        <walk edges="E5 E6"/>
    </person>
    <person id="ped165" type="ped_pedestrian" depart="608.32">
        <walk edges="E5 E7 E14"/>
    </person>
    <person id="ped166" type="ped_pedestrian" depart="612.00">
        <walk edges="E4 E5 E10"/>
    </person>
    <person id="ped167" type="ped_pedestrian" depart="615.69">
        <walk edges="E6"/>
    </person>
    <person id="ped168" type="ped_pedestrian" depart="619.38">
        <walk edges="E13 E7 E5"/>
    </person>
    <person id="ped169" type="ped_pedestrian" depart="623.06">
        <walk edges="E19 E7 E0 E15"/>
    </person>
    <person id="ped170" type="ped_pedestrian" depart="626.75">
        <walk edges="E5 E7 E13"/>
    </person>
    <person id="ped171" type="ped_pedestrian" depart="630.44">
        <walk edges="E0 E7 E12"/>
    </person>
    <person id="ped172" type="ped_pedestrian" depart="634.12">
        <walk edges="E15 E0 E6"/>
    </person>
    <person id="ped173" type="ped_pedestrian" depart="637.81">
        <walk edges="E9 E0 E7 E14"/>
    </person>
    <person id="ped174" type="ped_pedestrian" depart="641.50">
        <walk edges="E22 E2 E5 E17"/>
    </person>
    <person id="ped175" type="ped_pedestrian" depart="645.18">
        <walk edges="E9 E0 E2"/>
    </person>
    <person id="ped176" type="ped_pedestrian" depart="648.87">
        <walk edges="E8 E0 E5 E10"/>
    </person>
    <person id="ped177" type="ped_pedestrian" depart="652.56">
        <walk edges="E9 E0 E7 E12"/>
    </person>
    <person id="ped178" type="ped_pedestrian" depart="656.24">
        <walk edges="E9 E0 E7 E14"/>
    </person>
    <person id="ped179" type="ped_pedestrian" depart="659.93">
        <walk edges="E10 E5 E0 E18"/>
    </person>
    <person id="ped180" type="ped_pedestrian" depart="663.62">
        <walk edges="E3 E2 E0 E15"/>
    </person>
    <person id="ped181" type="ped_pedestrian" depart="667.31">
        <walk edges="E21 E2"/>
    </person>
    <person id="ped182" type="ped_pedestrian" depart="670.99">
        <walk edges="E17 E5 E2 E20"/>
    </person>
    <person id="ped183" type="ped_pedestrian" depart="674.68">
        <walk edges="E14 E7 E2 E3"/>
    </person>
    <person id="ped184" type="ped_pedestrian" depart="678.37">
        <walk edges="E0 E8"/>
    </person>
    <person id="ped185" type="ped_pedestrian" depart="682.05">
        <walk edges="E2 E3"/>
    </person>
    <person id="ped186" type="ped_pedestrian" depart="685.74">
        <walk edges="E3 E23"/>
    </person>
    <person id="ped187" type="ped_pedestrian" depart="689.43">
        <walk edges="E16 E5 E1"/>
    </person>
    <person id="ped188" type="ped_pedestrian" depart="693.11">
        <walk edges="E22 E2 E0 E15"/>
    </person>
    <person id="ped189" type="ped_pedestrian" depart="696.80">
        <walk edges="E15 E0 E6"/>
    </person>
    <person id="ped190" type="ped_pedestrian" depart="700.49">
        <walk edges="E3 E2 E0 E15"/>
    </person>
    <person id="ped191" type="ped_pedestrian" depart="704.17">
        <walk edges="E15 E0 E5 E17"/>
    </person>
    <person id="ped192" type="ped_pedestrian" depart="707.86">
        <walk edges="E17 E5 E0 E15"/>
    </person>
    <person id="ped193" type="ped_pedestrian" depart="711.55">
        <walk edges="E11 E5 E0 E18"/>
    </person>
    <person id="ped194" type="ped_pedestrian" depart="715.23">
        <walk edges="E8 E0 E2 E23"/>
    </person>
    <person id="ped195" type="ped_pedestrian" depart="718.92">
        <walk edges="E7 E2 E21"/>
    </person>
    <person id="ped196" type="ped_pedestrian" depart="722.61">
        <walk edges="E15 E0 E2 E20"/>
    </person>
    <person id="ped197" type="ped_pedestrian" depart="726.29">
        <walk edges="E0 E7 E14"/>
    </person>
    <person id="ped198" type="ped_pedestrian" depart="729.98">
        <walk edges="E18 E0 E2 E20"/>
    </person>
    <person id="ped199" type="ped_pedestrian" depart="733.67">
        <walk edges="E22 E2 E7 E19"/>
    </person>
    <person id="ped200" type="ped_pedestrian" depart="737.35">
        <walk edges="E18 E0 E7 E13"/>
    </person>
    <person id="ped201" type="ped_pedestrian" depart="741.04">
        <walk edges="E19 E7"/>
    </person>
    <person id="ped202" type="ped_pedestrian" depart="744.73">
        <walk edges="E5 E7 E12"/>
    </person>
    <person id="ped203" type="ped_pedestrian" depart="748.41">
        <walk edges="E10 E5 E2"/>
    </person>
    <person id="ped204" type="ped_pedestrian" depart="752.10">
        <walk edges="E22 E2 E5 E16"/>
    </person>
    <person id="ped205" type="ped_pedestrian" depart="755.79">
        <walk edges="E5 E4"/>
    </person>
    <person id="ped206" type="ped_pedestrian" depart="759.47">
        <walk edges="E23 E2 E7 E13"/>
    </person>
    <person id="ped207" type="ped_pedestrian" depart="763.16">
        <walk edges="E12 E7 E0"/>
    </person>
    <person id="ped208" type="ped_pedestrian" depart="766.85">
        <walk edges="E13 E19"/>
    </person>
    <person id="ped209" type="ped_pedestrian" depart="770.53">
        <walk edges="E6 E1"/>
    </person>
    <person id="ped210" type="ped_pedestrian" depart="774.22">
        <walk edges="E17 E5 E2 E22"/>
    </person>
    <person id="ped211" type="ped_pedestrian" depart="777.91">
        <walk edges="E12 E7 E2 E23"/>
    </person>
    <person id="ped212" type="ped_pedestrian" depart="781.59">
        <walk edges="E19 E13"/>
    </person>
    <person id="ped213" type="ped_pedestrian" depart="785.28">
        <walk edges="E22 E2 E0"/>
    </person>
    <person id="ped214" type="ped_pedestrian" depart="788.97">
        <walk edges="E4"/>
    </person>
    <person id="ped215" type="ped_pedestrian" depart="792.66">
        <walk edges="E10 E5 E0 E18"/>
    </person>
    <person id="ped216" type="ped_pedestrian" depart="796.34">
        <walk edges="E12 E7 E0 E8"/>
    </person>
    <person id="ped217" type="ped_pedestrian" depart="800.03">
        <walk edges="E2 E1"/>
    </person>
    <person id="ped218" type="ped_pedestrian" depart="803.72">
        <walk edges="E13 E7 E6"/>
    </person>
    <person id="ped219" type="ped_pedestrian" depart="807.40">
        <walk edges="E18 E0 E5"/>
    </person>
    <person id="ped220" type="ped_pedestrian" depart="811.09">
        <walk edges="E23 E2 E0 E9"/>
    </person>
    <person id="ped221" type="ped_pedestrian" depart="814.78">
        <walk edges="E21 E2 E0 E8"/>
    </person>
    <person id="ped222" type="ped_pedestrian" depart="818.46">
        <walk edges="E7 E2 E21"/>
    </person>
    <person id="ped223" type="ped_pedestrian" depart="822.15">
        <walk edges="E3 E2"/>
    </person>
    <person id="ped224" type="ped_pedestrian" depart="825.84">
        <walk edges="E5 E2 E20"/>
    </person>
    <person id="ped225" type="ped_pedestrian" depart="829.52">
        <walk edges="E7 E2 E3"/>
    </person>
    <person id="ped226" type="ped_pedestrian" depart="833.21">
        <walk edges="E19 E14"/>
    </person>
    <person id="ped227" type="ped_pedestrian" depart="836.90">
        <walk edges="E13 E7 E2 E22"/>
    </person>
    <person id="ped228" type="ped_pedestrian" depart="840.58">
        <walk edges="E4 E2"/>
    </person>
    <person id="ped229" type="ped_pedestrian" depart="844.27">
        <walk edges="E22 E2 E7 E14"/>
    </person>
    <person id="ped230" type="ped_pedestrian" depart="847.96">
        <walk edges="E1 E7 E14"/>
    </person>
    <person id="ped231" type="ped_pedestrian" depart="851.64">
        <walk edges="E14 E7 E0 E15"/>
    </person>
    <person id="ped232" type="ped_pedestrian" depart="855.33">
        <walk edges="E2 E5 E11"/>
    </person>
    <person id="ped233" type="ped_pedestrian" depart="859.02">
        <walk edges="E13 E7 E2 E23"/>
    </person>
    <person id="ped234" type="ped_pedestrian" depart="862.70">
        <walk edges="E23 E2 E1"/>
    </person>
    <person id="ped235" type="ped_pedestrian" depart="866.39">
        <walk edges="E17 E5 E2 E20"/>
    </person>
    <person id="ped236" type="ped_pedestrian" depart="870.08">
        <walk edges="E17 E5 E7 E12"/>
    </person>
    <person id="ped237" type="ped_pedestrian" depart="873.76">
        <walk edges="E18 E0 E7"/>
    </person>
    <person id="ped238" type="ped_pedestrian" depart="877.45">
        <walk edges="E21 E23"/>
    </person>
    <person id="ped239" type="ped_pedestrian" depart="881.14">
        <walk edges="E6 E4"/>
    </person>
    <person id="ped240" type="ped_pedestrian" depart="884.82">
        <walk edges="E17 E5 E0"/>
    </person>
    <person id="ped241" type="ped_pedestrian" depart="888.51">
        <walk edges="E16 E5 E4"/>
    </person>
    <person id="ped242" type="ped_pedestrian" depart="892.20">
        <walk edges="E6 E0 E8"/>
    </person>
    <person id="ped243" type="ped_pedestrian" depart="895.88">
        <walk edges="E18 E0 E2 E3"/>
    </person>
    <person id="ped244" type="ped_pedestrian" depart="899.57">
        <walk edges="E20 E21"/>
    </person>
    <person id="ped245" type="ped_pedestrian" depart="903.26">
        <walk edges="E13"/>
    </person>
    <person id="ped246" type="ped_pedestrian" depart="906.94">
        <walk edges="E18 E0"/>
    </person>
    <person id="ped247" type="ped_pedestrian" depart="910.63">
        <walk edges="E16 E5 E2 E23"/>
    </person>
    <person id="ped248" type="ped_pedestrian" depart="914.32">
        <walk edges="E17 E11"/>
    </person>
    <person id="ped249" type="ped_pedestrian" depart="918.01">
        <walk edges="E19 E7 E5 E11"/>
    </person>
    <person id="ped250" type="ped_pedestrian" depart="921.69">
        <walk edges="E21 E2 E0"/>
    </person>
    <person id="ped251" type="ped_pedestrian" depart="925.38">
        <walk edges="E17 E5 E2 E20"/>
    </person>
    <person id="ped252" type="ped_pedestrian" depart="929.07">
        <walk edges="E0 E2 E22"/>
    </person>
    <person id="ped253" type="ped_pedestrian" depart="932.75">
        <walk edges="E11 E5 E7 E19"/>
    </person>
    <person id="ped254" type="ped_pedestrian" depart="936.44">
        <walk edges="E1 E5 E17"/>
    </person>
    <person id="ped255" type="ped_pedestrian" depart="940.13">
        <walk edges="E13 E7 E0 E15"/>
    </person>
    <person id="ped256" type="ped_pedestrian" depart="943.81">
        <walk edges="E4 E5 E17"/>
    </person>
    <person id="ped257" type="ped_pedestrian" depart="947.50">
        <walk edges="E4 E5"/>