<?xml version="1.0" encoding="UTF-8"?>

<!-- generated on 2025-07-12 21:49:10.719320 by randomTrips.py v1_23_1+0000-676720d13f6
<configuration>
    <net-file value="osm.net.xml.gz"/>
    <output-trip-file value="osm.pedestrian.trips.xml"/>
    <route-file value="osm.pedestrian.rou.xml"/>
    <pedestrians value="True"/>
    <prefix value="ped"/>
    <vehicle-class value="pedestrian"/>
    <fringe-factor value="1"/>
    <max-distance value="2000.0"/>
    <insertion-density value="100.0"/>
</configuration>
-->

<routes xmlns:xsi="http://www.w3.org/2001/XMLSchema-instance" xsi:noNamespaceSchemaLocation="http://sumo.dlr.de/xsd/routes_file.xsd">
    <vType id="ped_pedestrian" vClass="pedestrian"/>
    <person id="ped0" depart="0.00" type="ped_pedestrian">
        <walk from="E22" to="E0"/>
    </person>
    <person id="ped1" depart="4.04" type="ped_pedestrian">
        <walk from="E14" to="E13"/>
    </person>
    <person id="ped2" depart="8.07" type="ped_pedestrian">
        <walk from="E3" to="E23"/>
    </person>
    <person id="ped3" depart="12.11" type="ped_pedestrian">
        <walk from="E7" to="E10"/>
    </person>
    <person id="ped4" depart="16.14" type="ped_pedestrian">
        <walk from="E18" to="E0"/>
    </person>
    <person id="ped5" depart="20.18" type="ped_pedestrian">
        <walk from="E13" to="E2"/>
    </person>
    <person id="ped6" depart="24.22" type="ped_pedestrian">
        <walk from="E0" to="E12"/>
    </person>
    <person id="ped7" depart="28.25" type="ped_pedestrian">
        <walk from="E22" to="E20"/>
    </person>
    <person id="ped8" depart="32.29" type="ped_pedestrian">
        <walk from="E13" to="E21"/>
    </person>
    <person id="ped9" depart="36.32" type="ped_pedestrian">
        <walk from="E5" to="E0"/>
    </person>
    <person id="ped10" depart="40.36" type="ped_pedestrian">
        <walk from="E5" to="E23"/>
    </person>
    <person id="ped11" depart="44.39" type="ped_pedestrian">
        <walk from="E16" to="E11"/>
    </person>
    <person id="ped12" depart="48.43" type="ped_pedestrian">
        <walk from="E8" to="E16"/>
    </person>
    <person id="ped13" depart="52.47" type="ped_pedestrian">
        <walk from="E10" to="E10"/>
    </person>
    <person id="ped14" depart="56.50" type="ped_pedestrian">
        <walk from="E6" to="E21"/>
    </person>
    <person id="ped15" depart="60.54" type="ped_pedestrian">
        <walk from="E5" to="E3"/>
    </person>
    <person id="ped16" depart="64.57" type="ped_pedestrian">
        <walk from="E2" to="E9"/>
    </person>
    <person id="ped17" depart="68.61" type="ped_pedestrian">
        <walk from="E17" to="E20"/>
    </person>
    <person id="ped18" depart="72.65" type="ped_pedestrian">
        <walk from="E5" to="E21"/>
    </person>
    <person id="ped19" depart="76.68" type="ped_pedestrian">
        <walk from="E6" to="E20"/>
    </person>
    <person id="ped20" depart="80.72" type="ped_pedestrian">
        <walk from="E23" to="E1"/>
    </person>
    <person id="ped21" depart="84.75" type="ped_pedestrian">
        <walk from="E13" to="E14"/>
    </person>
    <person id="ped22" depart="88.79" type="ped_pedestrian">
        <walk from="E1" to="E13"/>
    </person>
    <person id="ped23" depart="92.82" type="ped_pedestrian">
        <walk from="E10" to="E14"/>
    </person>
    <person id="ped24" depart="96.86" type="ped_pedestrian">
        <walk from="E22" to="E16"/>
    </person>
    <person id="ped25" depart="100.90" type="ped_pedestrian">
        <walk from="E16" to="E13"/>
    </person>
    <person id="ped26" depart="104.93" type="ped_pedestrian">
        <walk from="E14" to="E8"/>
    </person>
    <person id="ped27" depart="108.97" type="ped_pedestrian">
        <walk from="E22" to="E21"/>
    </person>
    <person id="ped28" depart="113.00" type="ped_pedestrian">
        <walk from="E12" to="E3"/>
    </person>
    <person id="ped29" depart="117.04" type="ped_pedestrian">
        <walk from="E11" to="E17"/>
    </person>
    <person id="ped30" depart="121.08" type="ped_pedestrian">
        <walk from="E9" to="E22"/>
    </person>
    <person id="ped31" depart="125.11" type="ped_pedestrian">
        <walk from="E20" to="E23"/>
    </person>
    <person id="ped32" depart="129.15" type="ped_pedestrian">
        <walk from="E6" to="E4"/>
    </person>
    <person id="ped33" depart="133.18" type="ped_pedestrian">
        <walk from="E13" to="E0"/>
    </person>
    <person id="ped34" depart="137.22" type="ped_pedestrian">
        <walk from="E15" to="E14"/>
    </person>
    <person id="ped35" depart="141.25" type="ped_pedestrian">
        <walk from="E13" to="E8"/>
    </person>
    <person id="ped36" depart="145.29" type="ped_pedestrian">
        <walk from="E7" to="E15"/>
    </person>
    <person id="ped37" depart="149.33" type="ped_pedestrian">
        <walk from="E22" to="E17"/>
    </person>
    <person id="ped38" depart="153.36" type="ped_pedestrian">
        <walk from="E7" to="E19"/>
    </person>
    <person id="ped39" depart="157.40" type="ped_pedestrian">
        <walk from="E14" to="E13"/>
    </person>
    <person id="ped40" depart="161.43" type="ped_pedestrian">
        <walk from="E20" to="E14"/>
    </person>
    <person id="ped41" depart="165.47" type="ped_pedestrian">
        <walk from="E21" to="E7"/>
    </person>
    <person id="ped42" depart="169.51" type="ped_pedestrian">
        <walk from="E17" to="E13"/>
    </person>
    <person id="ped43" depart="173.54" type="ped_pedestrian">
        <walk from="E9" to="E2"/>
    </person>
    <person id="ped44" depart="177.58" type="ped_pedestrian">
        <walk from="E10" to="E1"/>
    </person>
    <person id="ped45" depart="181.61" type="ped_pedestrian">
        <walk from="E10" to="E22"/>
    </person>
    <person id="ped46" depart="185.65" type="ped_pedestrian">
        <walk from="E5" to="E18"/>
    </person>
    <person id="ped47" depart="189.68" type="ped_pedestrian">
        <walk from="E1" to="E17"/>
    </person>
    <person id="ped48" depart="193.72" type="ped_pedestrian">
        <walk from="E9" to="E2"/>
    </person>
    <person id="ped49" depart="197.76" type="ped_pedestrian">
        <walk from="E9" to="E6"/>
    </person>
    <person id="ped50" depart="201.79" type="ped_pedestrian">
        <walk from="E0" to="E3"/>
    </person>
    <person id="ped51" depart="205.83" type="ped_pedestrian">
        <walk from="E23" to="E2"/>
    </person>
    <person id="ped52" depart="209.86" type="ped_pedestrian">
        <walk from="E14" to="E22"/>
    </person>
    <person id="ped53" depart="213.90" type="ped_pedestrian">
        <walk from="E10" to="E18"/>
    </person>
    <person id="ped54" depart="217.94" type="ped_pedestrian">
        <walk from="E18" to="E8"/>
    </person>
    <person id="ped55" depart="221.97" type="ped_pedestrian">
        <walk from="E7" to="E14"/>
    </person>
    <person id="ped56" depart="226.01" type="ped_pedestrian">
        <walk from="E2" to="E12"/>
    </person>
    <person id="ped57" depart="230.04" type="ped_pedestrian">
        <walk from="E7" to="E6"/>
    </person>
    <person id="ped58" depart="234.08" type="ped_pedestrian">
        <walk from="E15" to="E22"/>
    </person>
    <person id="ped59" depart="238.11" type="ped_pedestrian">
        <walk from="E21" to="E11"/>
    </person>
    <person id="ped60" depart="242.15" type="ped_pedestrian">
        <walk from="E4" to="E2"/>
    </person>
    <person id="ped61" depart="246.19" type="ped_pedestrian">
        <walk from="E4" to="E2"/>
    </person>
    <person id="ped62" depart="250.22" type="ped_pedestrian">
        <walk from="E0" to="E15"/>
    </person>
    <person id="ped63" depart="254.26" type="ped_pedestrian">
        <walk from="E0" to="E8"/>
    </person>
    <person id="ped64" depart="258.29" type="ped_pedestrian">
        <walk from="E7" to="E5"/>
    </person>
    <person id="ped65" depart="262.33" type="ped_pedestrian">
        <walk from="E15" to="E1"/>
    </person>
    <person id="ped66" depart="266.37" type="ped_pedestrian">
        <walk from="E7" to="E8"/>
    </person>
    <person id="ped67" depart="270.40" type="ped_pedestrian">
        <walk from="E10" to="E19"/>
    </person>
    <person id="ped68" depart="274.44" type="ped_pedestrian">
        <walk from="E1" to="E4"/>
    </person>
    <person id="ped69" depart="278.47" type="ped_pedestrian">
        <walk from="E4" to="E11"/>
    </person>
    <person id="ped70" depart="282.51" type="ped_pedestrian">
        <walk from="E19" to="E20"/>
    </person>
    <person id="ped71" depart="286.54" type="ped_pedestrian">
        <walk from="E14" to="E6"/>
    </person>
    <person id="ped72" depart="290.58" type="ped_pedestrian">
        <walk from="E18" to="E13"/>
    </person>
    <person id="ped73" depart="294.62" type="ped_pedestrian">
        <walk from="E2" to="E3"/>
    </person>
    <person id="ped74" depart="298.65" type="ped_pedestrian">
        <walk from="E12" to="E15"/>
    </person>
    <person id="ped75" depart="302.69" type="ped_pedestrian">
        <walk from="E9" to="E22"/>
    </person>
    <person id="ped76" depart="306.72" type="ped_pedestrian">
        <walk from="E18" to="E2"/>
    </person>
    <person id="ped77" depart="310.76" type="ped_pedestrian">
        <walk from="E10" to="E13"/>
    </person>
    <person id="ped78" depart="314.80" type="ped_pedestrian">
        <walk from="E16" to="E21"/>
    </person>
    <person id="ped79" depart="318.83" type="ped_pedestrian">
        <walk from="E13" to="E13"/>
    </person>
    <person id="ped80" depart="322.87" type="ped_pedestrian">
        <walk from="E1" to="E22"/>
    </person>
    <person id="ped81" depart="326.90" type="ped_pedestrian">
        <walk from="E13" to="E7"/>
    </person>
    <person id="ped82" depart="330.94" type="ped_pedestrian">
        <walk from="E6" to="E1"/>
    </person>
    <person id="ped83" depart="334.97" type="ped_pedestrian">
        <walk from="E13" to="E23"/>
    </person>
    <person id="ped84" depart="339.01" type="ped_pedestrian">
        <walk from="E13" to="E11"/>
    </person>
    <person id="ped85" depart="343.05" type="ped_pedestrian">
        <walk from="E8" to="E20"/>
    </person>
    <person id="ped86" depart="347.08" type="ped_pedestrian">
        <walk from="E19" to="E4"/>
    </person>
    <person id="ped87" depart="351.12" type="ped_pedestrian">
        <walk from="E5" to="E12"/>
    </person>
    <person id="ped88" depart="355.15" type="ped_pedestrian">
        <walk from="E10" to="E18"/>
    </person>
    <person id="ped89" depart="359.19" type="ped_pedestrian">
        <walk from="E18" to="E19"/>
    </person>
    <person id="ped90" depart="363.23" type="ped_pedestrian">
        <walk from="E3" to="E23"/>
    </person>
    <person id="ped91" depart="367.26" type="ped_pedestrian">
        <walk from="E9" to="E10"/>
    </person>
    <person id="ped92" depart="371.30" type="ped_pedestrian">
        <walk from="E17" to="E16"/>
    </person>
    <person id="ped93" depart="375.33" type="ped_pedestrian">
        <walk from="E6" to="E13"/>
    </person>
    <person id="ped94" depart="379.37" type="ped_pedestrian">
        <walk from="E12" to="E18"/>
    </person>
    <person id="ped95" depart="383.41" type="ped_pedestrian">
        <walk from="E18" to="E14"/>
    </person>
    <person id="ped96" depart="387.44" type="ped_pedestrian">
        <walk from="E13" to="E8"/>
    </person>
    <person id="ped97" depart="391.48" type="ped_pedestrian">
        <walk from="E18" to="E6"/>
    </person>
    <person id="ped98" depart="395.51" type="ped_pedestrian">
        <walk from="E20" to="E1"/>
    </person>
    <person id="ped99" depart="399.55" type="ped_pedestrian">
        <walk from="E9" to="E6"/>
    </person>
    <person id="ped100" depart="403.58" type="ped_pedestrian">
        <walk from="E9" to="E8"/>
    </person>
    <person id="ped101" depart="407.62" type="ped_pedestrian">
        <walk from="E6" to="E11"/>
    </person>
    <person id="ped102" depart="411.66" type="ped_pedestrian">
        <walk from="E19" to="E13"/>
    </person>
    <person id="ped103" depart="415.69" type="ped_pedestrian">
        <walk from="E17" to="E1"/>
    </person>
    <person id="ped104" depart="419.73" type="ped_pedestrian">
        <walk from="E17" to="E9"/>
    </person>
    <person id="ped105" depart="423.76" type="ped_pedestrian">
        <walk from="E14" to="E4"/>
    </person>
    <person id="ped106" depart="427.80" type="ped_pedestrian">
        <walk from="E18" to="E18"/>
    </person>
    <person id="ped107" depart="431.84" type="ped_pedestrian">
        <walk from="E8" to="E9"/>
    </person>
    <person id="ped108" depart="435.87" type="ped_pedestrian">
        <walk from="E20" to="E3"/>
    </person>
    <person id="ped109" depart="439.91" type="ped_pedestrian">
        <walk from="E11" to="E15"/>
    </person>
    <person id="ped110" depart="443.94" type="ped_pedestrian">
        <walk from="E9" to="E20"/>
    </person>
    <person id="ped111" depart="447.98" type="ped_pedestrian">
        <walk from="E20" to="E3"/>
    </person>
    <person id="ped112" depart="452.01" type="ped_pedestrian">
        <walk from="E1" to="E21"/>
    </person>
    <person id="ped113" depart="456.05" type="ped_pedestrian">
        <walk from="E2" to="E6"/>
    </person>
    <person id="ped114" depart="460.09" type="ped_pedestrian">
        <walk from="E11" to="E9"/>
    </person>
    <person id="ped115" depart="464.12" type="ped_pedestrian">
        <walk from="E1" to="E12"/>
    </person>
    <person id="ped116" depart="468.16" type="ped_pedestrian">
        <walk from="E21" to="E23"/>
    </person>
    <person id="ped117" depart="472.19" type="ped_pedestrian">
        <walk from="E13" to="E10"/>
    </person>
    <person id="ped118" depart="476.23" type="ped_pedestrian">
        <walk from="E7" to="E13"/>
    </person>
    <person id="ped119" depart="480.27" type="ped_pedestrian">
        <walk from="E21" to="E21"/>
    </person>
    <person id="ped120" depart="484.30" type="ped_pedestrian">
        <walk from="E18" to="E21"/>
    </person>
    <person id="ped121" depart="488.34" type="ped_pedestrian">
        <walk from="E2" to="E8"/>
    </person>
    <person id="ped122" depart="492.37" type="ped_pedestrian">
        <walk from="E12" to="E3"/>
    </person>
    <person id="ped123" depart="496.41" type="ped_pedestrian">
        <walk from="E13" to="E17"/>
    </person>
    <person id="ped124" depart="500.44" type="ped_pedestrian">
        <walk from="E23" to="E15"/>
    </person>
    <person id="ped125" depart="504.48" type="ped_pedestrian">
        <walk from="E15" to="E4"/>
    </person>
    <person id="ped126" depart="508.52" type="ped_pedestrian">
        <walk from="E1" to="E18"/>
    </person>
    <person id="ped127" depart="512.55" type="ped_pedestrian">
        <walk from="E9" to="E9"/>
    </person>
    <person id="ped128" depart="516.59" type="ped_pedestrian">
        <walk from="E1" to="E13"/>
    </person>
    <person id="ped129" depart="520.62" type="ped_pedestrian">
        <walk from="E14" to="E8"/>
    </person>
    <person id="ped130" depart="524.66" type="ped_pedestrian">
        <walk from="E7" to="E7"/>
    </person>
    <person id="ped131" depart="528.70" type="ped_pedestrian">
        <walk from="E16" to="E11"/>
    </person>
    <person id="ped132" depart="532.73" type="ped_pedestrian">
        <walk from="E6" to="E23"/>
    </person>
    <person id="ped133" depart="536.77" type="ped_pedestrian">
        <walk from="E21" to="E9"/>
    </person>
    <person id="ped134" depart="540.80" type="ped_pedestrian">
        <walk from="E22" to="E0"/>
    </person>
    <person id="ped135" depart="544.84" type="ped_pedestrian">
        <walk from="E5" to="E15"/>
    </person>
    <person id="ped136" depart="548.87" type="ped_pedestrian">
        <walk from="E22" to="E8"/>
    </person>
    <person id="ped137" depart="552.91" type="ped_pedestrian">
        <walk from="E11" to="E10"/>
    </person>
    <person id="ped138" depart="556.95" type="ped_pedestrian">
        <walk from="E10" to="E20"/>
    </person>
    <person id="ped139" depart="560.98" type="ped_pedestrian">
        <walk from="E14" to="E21"/>
    </person>
    <person id="ped140" depart="565.02" type="ped_pedestrian">
        <walk from="E3" to="E12"/>
    </person>
    <person id="ped141" depart="569.05" type="ped_pedestrian">
        <walk from="E22" to="E14"/>
    </person>
    <person id="ped142" depart="573.09" type="ped_pedestrian">
        <walk from="E19" to="E7"/>
    </person>
    <person id="ped143" depart="577.13" type="ped_pedestrian">
        <walk from="E6" to="E10"/>
    </person>
    <person id="ped144" depart="581.16" type="ped_pedestrian">
        <walk from="E18" to="E14"/>
    </person>
    <person id="ped145" depart="585.20" type="ped_pedestrian">
        <walk from="E0" to="E4"/>
    </person>
    <person id="ped146" depart="589.23" type="ped_pedestrian">
        <walk from="E22" to="E14"/>
    </person>
    <person id="ped147" depart="593.27" type="ped_pedestrian">
        <walk from="E3" to="E20"/>
    </person>
    <person id="ped148" depart="597.30" type="ped_pedestrian">
        <walk from="E18" to="E0"/>
    </person>
    <person id="ped149" depart="601.34" type="ped_pedestrian">
        <walk from="E1" to="E7"/>
    </person>
    <person id="ped150" depart="605.38" type="ped_pedestrian">
        <walk from="E7" to="E20"/>
    </person>
    <person id="ped151" depart="609.41" type="ped_pedestrian">
        <walk from="E6" to="E20"/>
    </person>
    <person id="ped152" depart="613.45" type="ped_pedestrian">
        <walk from="E11" to="E11"/>
    </person>
    <person id="ped153" depart="617.48" type="ped_pedestrian">
        <walk from="E15" to="E7"/>
    </person>
    <person id="ped154" depart="621.52" type="ped_pedestrian">
        <walk from="E5" to="E6"/>
    </person>
    <person id="ped155" depart="625.56" type="ped_pedestrian">
        <walk from="E7" to="E13"/>
    </person>
    <person id="ped156" depart="629.59" type="ped_pedestrian">
        <walk from="E13" to="E10"/>
    </person>
    <person id="ped157" depart="633.63" type="ped_pedestrian">
        <walk from="E4" to="E7"/>
    </person>
    <person id="ped158" depart="637.66" type="ped_pedestrian">
        <walk from="E17" to="E21"/>
    </person>
    <person id="ped159" depart="641.70" type="ped_pedestrian">
        <walk from="E11" to="E8"/>
    </person>
    <person id="ped160" depart="645.73" type="ped_pedestrian">
        <walk from="E6" to="E9"/>
    </person>
    <person id="ped161" depart="649.77" type="ped_pedestrian">
        <walk from="E5" to="E7"/>
    </person>
    <person id="ped162" depart="653.81" type="ped_pedestrian">
        <walk from="E0" to="E3"/>
    </person>
    <person id="ped163" depart="657.84" type="ped_pedestrian">
        <walk from="E15" to="E8"/>
    </person>
    <person id="ped164" depart="661.88" type="ped_pedestrian">
        <walk from="E5" to="E6"/>
    </person>
    <person id="ped165" depart="665.91" type="ped_pedestrian">
        <walk from="E5" to="E14"/>
    </person>
    <person id="ped166" depart="669.95" type="ped_pedestrian">
        <walk from="E4" to="E10"/>
    </person>
    <person id="ped167" depart="673.99" type="ped_pedestrian">
        <walk from="E6" to="E6"/>
    </person>
    <person id="ped168" depart="678.02" type="ped_pedestrian">
        <walk from="E13" to="E5"/>
    </person>
    <person id="ped169" depart="682.06" type="ped_pedestrian">
        <walk from="E19" to="E15"/>
    </person>
    <person id="ped170" depart="686.09" type="ped_pedestrian">
        <walk from="E5" to="E13"/>
    </person>
    <person id="ped171" depart="690.13" type="ped_pedestrian">
        <walk from="E0" to="E12"/>
    </person>
    <person id="ped172" depart="694.16" type="ped_pedestrian">
        <walk from="E15" to="E6"/>
    </person>
    <person id="ped173" depart="698.20" type="ped_pedestrian">
        <walk from="E9" to="E14"/>
    </person>
    <person id="ped174" depart="702.24" type="ped_pedestrian">
        <walk from="E22" to="E17"/>
    </person>
    <person id="ped175" depart="706.27" type="ped_pedestrian">
        <walk from="E9" to="E2"/>
    </person>
    <person id="ped176" depart="710.31" type="ped_pedestrian">
        <walk from="E8" to="E10"/>
    </person>
    <person id="ped177" depart="714.34" type="ped_pedestrian">
        <walk from="E9" to="E12"/>
    </person>
    <person id="ped178" depart="718.38" type="ped_pedestrian">
        <walk from="E9" to="E14"/>
    </person>
    <person id="ped179" depart="722.42" type="ped_pedestrian">
        <walk from="E10" to="E18"/>
    </person>
    <person id="ped180" depart="726.45" type="ped_pedestrian">
        <walk from="E3" to="E15"/>
    </person>
    <person id="ped181" depart="730.49" type="ped_pedestrian">
        <walk from="E21" to="E2"/>
    </person>
    <person id="ped182" depart="734.52" type="ped_pedestrian">
        <walk from="E17" to="E20"/>
    </person>
    <person id="ped183" depart="738.56" type="ped_pedestrian">
        <walk from="E14" to="E3"/>
    </person>
    <person id="ped184" depart="742.60" type="ped_pedestrian">
        <walk from="E0" to="E8"/>
    </person>
    <person id="ped185" depart="746.63" type="ped_pedestrian">
        <walk from="E2" to="E3"/>
    </person>
    <person id="ped186" depart="750.67" type="ped_pedestrian">
        <walk from="E3" to="E23"/>
    </person>
    <person id="ped187" depart="754.70" type="ped_pedestrian">
        <walk from="E16" to="E1"/>
    </person>
    <person id="ped188" depart="758.74" type="ped_pedestrian">
        <walk from="E22" to="E15"/>
    </person>
    <person id="ped189" depart="762.77" type="ped_pedestrian">
        <walk from="E15" to="E6"/>
    </person>
    <person id="ped190" depart="766.81" type="ped_pedestrian">
        <walk from="E3" to="E15"/>
    </person>
    <person id="ped191" depart="770.85" type="ped_pedestrian">
        <walk from="E15" to="E17"/>
    </person>
    <person id="ped192" depart="774.88" type="ped_pedestrian">
        <walk from="E17" to="E15"/>
    </person>
    <person id="ped193" depart="778.92" type="ped_pedestrian">
        <walk from="E11" to="E18"/>
    </person>
    <person id="ped194" depart="782.95" type="ped_pedestrian">
        <walk from="E8" to="E23"/>
    </person>
    <person id="ped195" depart="786.99" type="ped_pedestrian">
        <walk from="E7" to="E21"/>
    </person>
    <person id="ped196" depart="791.03" type="ped_pedestrian">
        <walk from="E15" to="E20"/>
    </person>
    <person id="ped197" depart="795.06" type="ped_pedestrian">
        <walk from="E0" to="E14"/>
    </person>
    <person id="ped198" depart="799.10" type="ped_pedestrian">
        <walk from="E18" to="E20"/>
    </person>
    <person id="ped199" depart="803.13" type="ped_pedestrian">
        <walk from="E22" to="E19"/>
    </person>
    <person id="ped200" depart="807.17" type="ped_pedestrian">
        <walk from="E18" to="E13"/>
    </person>
    <person id="ped201" depart="811.20" type="ped_pedestrian">
        <walk from="E19" to="E7"/>
    </person>
    <person id="ped202" depart="815.24" type="ped_pedestrian">
        <walk from="E5" to="E12"/>
    </person>
    <person id="ped203" depart="819.28" type="ped_pedestrian">
        <walk from="E10" to="E2"/>
    </person>
    <person id="ped204" depart="823.31" type="ped_pedestrian">
        <walk from="E22" to="E16"/>
    </person>
    <person id="ped205" depart="827.35" type="ped_pedestrian">
        <walk from="E5" to="E4"/>
    </person>
    <person id="ped206" depart="831.38" type="ped_pedestrian">
        <walk from="E23" to="E13"/>
    </person>
    <person id="ped207" depart="835.42" type="ped_pedestrian">
        <walk from="E12" to="E0"/>
    </person>
    <person id="ped208" depart="839.46" type="ped_pedestrian">
        <walk from="E13" to="E19"/>
    </person>
    <person id="ped209" depart="843.49" type="ped_pedestrian">
        <walk from="E6" to="E1"/>
    </person>
    <person id="ped210" depart="847.53" type="ped_pedestrian">
        <walk from="E17" to="E22"/>
    </person>
    <person id="ped211" depart="851.56" type="ped_pedestrian">
        <walk from="E12" to="E23"/>
    </person>
    <person id="ped212" depart="855.60" type="ped_pedestrian">
        <walk from="E19" to="E13"/>
    </person>
    <person id="ped213" depart="859.63" type="ped_pedestrian">
        <walk from="E22" to="E0"/>
    </person>
    <person id="ped214" depart="863.67" type="ped_pedestrian">
        <walk from="E4" to="E4"/>
    </person>
    <person id="ped215" depart="867.71" type="ped_pedestrian">
        <walk from="E10" to="E18"/>
    </person>
    <person id="ped216" depart="871.74" type="ped_pedestrian">
        <walk from="E12" to="E8"/>
    </person>
    <person id="ped217" depart="875.78" type="ped_pedestrian">
        <walk from="E2" to="E1"/>
    </person>
    <person id="ped218" depart="879.81" type="ped_pedestrian">
        <walk from="E13" to="E6"/>
    </person>
    <person id="ped219" depart="883.85" type="ped_pedestrian">
        <walk from="E18" to="E5"/>
    </person>
    <person id="ped220" depart="887.89" type="ped_pedestrian">
        <walk from="E23" to="E9"/>
    </person>
    <person id="ped221" depart="891.92" type="ped_pedestrian">
        <walk from="E21" to="E8"/>
    </person>
    <person id="ped222" depart="895.96" type="ped_pedestrian">
        <walk from="E7" to="E21"/>
    </person>
    <person id="ped223" depart="899.99" type="ped_pedestrian">
        <walk from="E3" to="E2"/>
    </person>
    <person id="ped224" depart="904.03" type="ped_pedestrian">
        <walk from="E5" to="E20"/>
    </person>
    <person id="ped225" depart="908.06" type="ped_pedestrian">
        <walk from="E7" to="E3"/>
    </person>
    <person id="ped226" depart="912.10" type="ped_pedestrian">
        <walk from="E19" to="E14"/>
    </person>
    <person id="ped227" depart="916.14" type="ped_pedestrian">
        <walk from="E13" to="E22"/>
    </person>
    <person id="ped228" depart="920.17" type="ped_pedestrian">
        <walk from="E4" to="E2"/>
    </person>
    <person id="ped229" depart="924.21" type="ped_pedestrian">
        <walk from="E22" to="E14"/>
    </person>
    <person id="ped230" depart="928.24" type="ped_pedestrian">
        <walk from="E1" to="E14"/>
    </person>
    <person id="ped231" depart="932.28" type="ped_pedestrian">
        <walk from="E14" to="E15"/>
    </person>
    <person id="ped232" depart="936.32" type="ped_pedestrian">
        <walk from="E2" to="E11"/>
    </person>
    <person id="ped233" depart="940.35" type="ped_pedestrian">
        <walk from="E13" to="E23"/>
    </person>
    <person id="ped234" depart="944.39" type="ped_pedestrian">
        <walk from="E23" to="E1"/>
    </person>
    <person id="ped235" depart="948.42" type="ped_pedestrian">
        <walk from="E17" to="E20"/>
    </person>
    <person id="ped236" depart="952.46" type="ped_pedestrian">
        <walk from="E17" to="E12"/>
    </person>
    <person id="ped237" depart="956.49" type="ped_pedestrian">
        <walk from="E18" to="E7"/>
    </person>
    <person id="ped238" depart="960.53" type="ped_pedestrian">
        <walk from="E21" to="E23"/>
    </person>
    <person id="ped239" depart="964.57" type="ped_pedestrian">
        <walk from="E6" to="E4"/>
    </person>
    <person id="ped240" depart="968.60" type="ped_pedestrian">
        <walk from="E17" to="E0"/>
    </person>
    <person id="ped241" depart="972.64" type="ped_pedestrian">
        <walk from="E16" to="E4"/>
    </person>
    <person id="ped242" depart="976.67" type="ped_pedestrian">
        <walk from="E6" to="E8"/>
    </person>
    <person id="ped243" depart="980.71" type="ped_pedestrian">
        <walk from="E18" to="E3"/>
    </person>
    <person id="ped244" depart="984.75" type="ped_pedestrian">
        <walk from="E20" to="E21"/>
    </person>
    <person id="ped245" depart="988.78" type="ped_pedestrian">
        <walk from="E13" to="E13"/>
    </person>
    <person id="ped246" depart="992.82" type="ped_pedestrian">
        <walk from="E18" to="E0"/>
    </person>
    <person id="ped247" depart="996.85" type="ped_pedestrian">
        <walk from="E16" to="E23"/>
    </person>
    <person id="ped248" depart="1000.89" type="ped_pedestrian">
        <walk from="E17" to="E11"/>
    </person>
    <person id="ped249" depart="1004.92" type="ped_pedestrian">
        <walk from="E19" to="E11"/>
    </person>
    <person id="ped250" depart="1008.96" type="ped_pedestrian">
        <walk from="E21" to="E0"/>
    </person>
    <person id="ped251" depart="1013.00" type="ped_pedestrian">
        <walk from="E17" to="E20"/>
    </person>
    <person id="ped252" depart="1017.03" type="ped_pedestrian">
        <walk from="E0" to="E22"/>
    </person>
    <person id="ped253" depart="1021.07" type="ped_pedestrian">
        <walk from="E11" to="E19"/>
    </person>
    <person id="ped254" depart="1025.10" type="ped_pedestrian">
        <walk from="E1" to="E17"/>
    </person>
    <person id="ped255" depart="1029.14" type="ped_pedestrian">
        <walk from="E13" to="E15"/>
    </person>
    <person id="ped256" depart="1033.18" type="ped_pedestrian">
        <walk from="E4" to="E17"/>
    </person>
    <person id="ped257" depart="1037.21" type="ped_pedestrian">
        <walk from="E4" to="E5"/>
    </person>
    <person id="ped258" depart="1041.25" type="ped_pedestrian">
        <walk from="E14" to="E1"/>
    </person>
    <person id="ped259" depart="1045.28" type="ped_pedestrian">
        <walk from="E0" to="E2"/>
    </person>
    <person id="ped260" depart="1049.32" type="ped_pedestrian">
        <walk from="E9" to="E16"/>
    </person>
    <person id="ped261" depart="1053.35" type="ped_pedestrian">
        <walk from="E22" to="E4"/>
    </person>