<?xml version="1.0" encoding="UTF-8"?>

<!-- generated on 2025-07-01 15:12:13.971460 by randomTrips.py v1_23_1+0000-676720d13f6
<configuration>
    <net-file value="osm.net.xml.gz"/>
    <output-trip-file value="osm.passenger.trips.xml"/>
    <route-file value="osm.passenger.rou.xml"/>
    <prefix value="veh"/>
    <trip-attributes value="departLane=&quot;best&quot;"/>
    <fringe-start-attributes value="departSpeed=&quot;max&quot;"/>
    <vehicle-class value="passenger"/>
    <lanes value="True"/>
    <fringe-factor value="5"/>
    <allow-fringe.min-length value="10000.0"/>
    <edge-permission value="passenger"/>
    <via-edge-types value="highway.motorway,highway.motorway_link,highway.trunk_link,highway.primary_link,highway.secondary_link,highway.tertiary_link"/>
    <min-distance value="300.0"/>
    <min-distance.fringe value="100.0"/>
    <remove-loops value="True"/>
    <validate value="True"/>
    <insertion-density value="120.0"/>
</configuration>
-->

<routes xmlns:xsi="http://www.w3.org/2001/XMLSchema-instance" xsi:noNamespaceSchemaLocation="http://sumo.dlr.de/xsd/routes_file.xsd">
    <vType id="veh_passenger" vClass="passenger"/>
    <trip id="veh0" depart="0.00" from="E7" to="E10" departLane="best" type="veh_passenger"/>
    <trip id="veh1" depart="3.33" from="E12" to="E17" departLane="best" type="veh_passenger" departSpeed="max"/>
    <trip id="veh2" depart="6.66" from="E12" to="E20" departLane="best" type="veh_passenger" departSpeed="max"/>
    <trip id="veh3" depart="9.98" from="E9" to="E14" departLane="best" type="veh_passenger" departSpeed="max"/>
    <trip id="veh4" depart="13.31" from="E11" to="E13" departLane="best" type="veh_passenger" departSpeed="max"/>
    <trip id="veh5" depart="16.64" from="E21" to="E15" departLane="best" type="veh_passenger" departSpeed="max"/>
    <trip id="veh6" depart="19.97" from="E18" to="E13" departLane="best" type="veh_passenger" departSpeed="max"/>
    <trip id="veh7" depart="23.30" from="E16" to="E8" departLane="best" type="veh_passenger" departSpeed="max"/>
    <trip id="veh8" depart="26.63" from="E12" to="E22" departLane="best" type="veh_passenger" departSpeed="max"/>
    <trip id="veh9" depart="29.95" from="E9" to="E20" departLane="best" type="veh_passenger" departSpeed="max"/>
    <trip id="veh10" depart="33.28" from="E12" to="E1" departLane="best" type="veh_passenger" departSpeed="max"/>
    <trip id="veh11" depart="36.61" from="E12" to="E8" departLane="best" type="veh_passenger" departSpeed="max"/>
    <trip id="veh12" depart="39.94" from="E21" to="E15" departLane="best" type="veh_passenger" departSpeed="max"/>
    <trip id="veh13" depart="43.27" from="E9" to="E17" departLane="best" type="veh_passenger" departSpeed="max"/>
    <trip id="veh14" depart="46.60" from="E18" to="E13" departLane="best" type="veh_passenger" departSpeed="max"/>
    <trip id="veh15" depart="49.92" from="E9" to="E17" departLane="best" type="veh_passenger" departSpeed="max"/>
    <trip id="veh16" depart="53.25" from="E11" to="E1" departLane="best" type="veh_passenger" departSpeed="max"/>
    <trip id="veh17" depart="56.58" from="E11" to="E20" departLane="best" type="veh_passenger" departSpeed="max"/>
    <trip id="veh18" depart="59.91" from="E11" to="E15" departLane="best" type="veh_passenger" departSpeed="max"/>
    <trip id="veh19" depart="63.24" from="E9" to="E17" departLane="best" type="veh_passenger" departSpeed="max"/>
    <trip id="veh20" depart="66.57" from="E16" to="E20" departLane="best" type="veh_passenger" departSpeed="max"/>
    <trip id="veh21" depart="69.89" from="E11" to="E15" departLane="best" type="veh_passenger" departSpeed="max"/>
    <trip id="veh22" depart="73.22" from="E16" to="E20" departLane="best" type="veh_passenger" departSpeed="max"/>
    <trip id="veh23" depart="76.55" from="E21" to="E13" departLane="best" type="veh_passenger" departSpeed="max"/>
    <trip id="veh24" depart="79.88" from="E0" to="E14" departLane="best" type="veh_passenger"/>
    <trip id="veh25" depart="83.21" from="E11" to="E22" departLane="best" type="veh_passenger" departSpeed="max"/>
    <trip id="veh26" depart="86.54" from="E19" to="E2" departLane="best" type="veh_passenger" departSpeed="max"/>
    <trip id="veh27" depart="89.86" from="E18" to="E13" departLane="best" type="veh_passenger" departSpeed="max"/>
    <trip id="veh28" depart="93.19" from="E9" to="E20" departLane="best" type="veh_passenger" departSpeed="max"/>
    <trip id="veh29" depart="96.52" from="E11" to="E13" departLane="best" type="veh_passenger" departSpeed="max"/>
    <trip id="veh30" depart="99.85" from="E16" to="E20" departLane="best" type="veh_passenger" departSpeed="max"/>
    <trip id="veh31" depart="103.18" from="E11" to="E20" departLane="best" type="veh_passenger" departSpeed="max"/>
    <trip id="veh32" depart="106.51" from="E12" to="E8" departLane="best" type="veh_passenger" departSpeed="max"/>
    <trip id="veh33" depart="109.83" from="E12" to="E20" departLane="best" type="veh_passenger" departSpeed="max"/>
    <trip id="veh34" depart="113.16" from="E12" to="E10" departLane="best" type="veh_passenger" departSpeed="max"/>
    <trip id="veh35" depart="116.49" from="E11" to="E15" departLane="best" type="veh_passenger" departSpeed="max"/>
    <trip id="veh36" depart="119.82" from="E9" to="E10" departLane="best" type="veh_passenger" departSpeed="max"/>
    <trip id="veh37" depart="123.15" from="E18" to="E14" departLane="best" type="veh_passenger" departSpeed="max"/>
    <trip id="veh38" depart="126.48" from="E12" to="E17" departLane="best" type="veh_passenger" departSpeed="max"/>
    <trip id="veh39" depart="129.80" from="E18" to="E14" departLane="best" type="veh_passenger" departSpeed="max"/>
    <trip id="veh40" depart="133.13" from="E12" to="E8" departLane="best" type="veh_passenger" departSpeed="max"/>
    <trip id="veh41" depart="136.46" from="E18" to="E6" departLane="best" type="veh_passenger" departSpeed="max"/>
    <trip id="veh42" depart="139.79" from="E18" to="E10" departLane="best" type="veh_passenger" departSpeed="max"/>
    <trip id="veh43" depart="143.12" from="E9" to="E20" departLane="best" type="veh_passenger" departSpeed="max"/>
    <trip id="veh44" depart="146.45" from="E11" to="E20" departLane="best" type="veh_passenger" departSpeed="max"/>
    <trip id="veh45" depart="149.77" from="E12" to="E8" departLane="best" type="veh_passenger" departSpeed="max"/>
    <trip id="veh46" depart="153.10" from="E11" to="E13" departLane="best" type="veh_passenger" departSpeed="max"/>
    <trip id="veh47" depart="156.43" from="E12" to="E10" departLane="best" type="veh_passenger" departSpeed="max"/>
    <trip id="veh48" depart="159.76" from="E12" to="E22" departLane="best" type="veh_passenger" departSpeed="max"/>
    <trip id="veh49" depart="163.09" from="E16" to="E22" departLane="best" type="veh_passenger" departSpeed="max"/>
    <trip id="veh50" depart="166.42" from="E11" to="E13" departLane="best" type="veh_passenger" departSpeed="max"/>
    <trip id="veh51" depart="169.74" from="E16" to="E8" departLane="best" type="veh_passenger" departSpeed="max"/>
    <trip id="veh52" depart="173.07" from="E18" to="E13" departLane="best" type="veh_passenger" departSpeed="max"/>
    <trip id="veh53" depart="176.40" from="E5" to="E22" departLane="best" type="veh_passenger"/>
    <trip id="veh54" depart="179.73" from="E21" to="E8" departLane="best" type="veh_passenger" departSpeed="max"/>
    <trip id="veh55" depart="183.06" from="E21" to="E8" departLane="best" type="veh_passenger" departSpeed="max"/>
    <trip id="veh56" depart="186.39" from="E11" to="E2" departLane="best" type="veh_passenger" departSpeed="max"/>
    <trip id="veh57" depart="189.71" from="E16" to="E20" departLane="best" type="veh_passenger" departSpeed="max"/>
    <trip id="veh58" depart="193.04" from="E23" to="E13" departLane="best" type="veh_passenger" departSpeed="max"/>
    <trip id="veh59" depart="196.37" from="E21" to="E14" departLane="best" type="veh_passenger" departSpeed="max"/>
    <trip id="veh60" depart="199.70" from="E18" to="E14" departLane="best" type="veh_passenger" departSpeed="max"/>
    <trip id="veh61" depart="203.03" from="E21" to="E14" departLane="best" type="veh_passenger" departSpeed="max"/>
    <trip id="veh62" depart="206.36" from="E9" to="E17" departLane="best" type="veh_passenger" departSpeed="max"/>
    <trip id="veh63" depart="209.68" from="E12" to="E10" departLane="best" type="veh_passenger" departSpeed="max"/>
    <trip id="veh64" depart="213.01" from="E12" to="E8" departLane="best" type="veh_passenger" departSpeed="max"/>
    <trip id="veh65" depart="216.34" from="E16" to="E8" departLane="best" type="veh_passenger" departSpeed="max"/>
    <trip id="veh66" depart="219.67" from="E3" to="E10" departLane="best" type="veh_passenger"/>
    <trip id="veh67" depart="223.00" from="E12" to="E4" departLane="best" type="veh_passenger" departSpeed="max"/>
    <trip id="veh68" depart="226.33" from="E3" to="E13" departLane="best" type="veh_passenger"/>
    <trip id="veh69" depart="229.65" from="E0" to="E13" departLane="best" type="veh_passenger"/>
    <trip id="veh70" depart="232.98" from="E9" to="E14" departLane="best" type="veh_passenger" departSpeed="max"/>
    <trip id="veh71" depart="236.31" from="E21" to="E15" departLane="best" type="veh_passenger" departSpeed="max"/>
    <trip id="veh72" depart="239.64" from="E9" to="E17" departLane="best" type="veh_passenger" departSpeed="max"/>
    <trip id="veh73" depart="242.97" from="E9" to="E10" departLane="best" type="veh_passenger" departSpeed="max"/>
    <trip id="veh74" depart="246.30" from="E9" to="E13" departLane="best" type="veh_passenger" departSpeed="max"/>
    <trip id="veh75" depart="249.62" from="E9" to="E14" departLane="best" type="veh_passenger" departSpeed="max"/>
    <trip id="veh76" depart="252.95" from="E11" to="E15" departLane="best" type="veh_passenger" departSpeed="max"/>
    <trip id="veh77" depart="256.28" from="E16" to="E22" departLane="best" type="veh_passenger" departSpeed="max"/>
    <trip id="veh78" depart="259.61" from="E18" to="E10" departLane="best" type="veh_passenger" departSpeed="max"/>
    <trip id="veh79" depart="262.94" from="E21" to="E14" departLane="best" type="veh_passenger" departSpeed="max"/>
    <trip id="veh80" depart="266.26" from="E18" to="E14" departLane="best" type="veh_passenger" departSpeed="max"/>
    <trip id="veh81" depart="269.59" from="E11" to="E15" departLane="best" type="veh_passenger" departSpeed="max"/>
    <trip id="veh82" depart="272.92" from="E9" to="E20" departLane="best" type="veh_passenger" departSpeed="max"/>
    <trip id="veh83" depart="276.25" from="E0" to="E14" departLane="best" type="veh_passenger"/>
    <trip id="veh84" depart="279.58" from="E18" to="E13" departLane="best" type="veh_passenger" departSpeed="max"/>
    <trip id="veh85" depart="282.91" from="E3" to="E13" departLane="best" type="veh_passenger"/>
    <trip id="veh86" depart="286.23" from="E21" to="E14" departLane="best" type="veh_passenger" departSpeed="max"/>
    <trip id="veh87" depart="289.56" from="E23" to="E13" departLane="best" type="veh_passenger" departSpeed="max"/>
    <trip id="veh88" depart="292.89" from="E12" to="E17" departLane="best" type="veh_passenger" departSpeed="max"/>
    <trip id="veh89" depart="296.22" from="E12" to="E22" departLane="best" type="veh_passenger" departSpeed="max"/>
    <trip id="veh90" depart="299.55" from="E11" to="E15" departLane="best" type="veh_passenger" departSpeed="max"/>
    <trip id="veh91" depart="302.88" from="E12" to="E8" departLane="best" type="veh_passenger" departSpeed="max"/>
    <trip id="veh92" depart="306.20" from="E19" to="E4" departLane="best" type="veh_passenger" departSpeed="max"/>
    <trip id="veh93" depart="309.53" from="E21" to="E8" departLane="best" type="veh_passenger" departSpeed="max"/>
    <trip id="veh94" depart="312.86" from="E21" to="E8" departLane="best" type="veh_passenger" departSpeed="max"/>
    <trip id="veh95" depart="316.19" from="E7" to="E20" departLane="best" type="veh_passenger"/>
    <trip id="veh96" depart="319.52" from="E7" to="E22" departLane="best" type="veh_passenger"/>
    <trip id="veh97" depart="322.85" from="E12" to="E20" departLane="best" type="veh_passenger" departSpeed="max"/>
    <trip id="veh98" depart="326.17" from="E21" to="E14" departLane="best" type="veh_passenger" departSpeed="max"/>
    <trip id="veh99" depart="329.50" from="E19" to="E10" departLane="best" type="veh_passenger" departSpeed="max"/>
    <trip id="veh100" depart="332.83" from="E12" to="E22" departLane="best" type="veh_passenger" departSpeed="max"/>
    <trip id="veh101" depart="336.16" from="E18" to="E13" departLane="best" type="veh_passenger" departSpeed="max"/>
    <trip id="veh102" depart="339.49" from="E16" to="E22" departLane="best" type="veh_passenger" departSpeed="max"/>
    <trip id="veh103" depart="342.82" from="E18" to="E13" departLane="best" type="veh_passenger" departSpeed="max"/>
    <trip id="veh104" depart="346.14" from="E19" to="E10" departLane="best" type="veh_passenger" departSpeed="max"/>
    <trip id="veh105" depart="349.47" from="E23" to="E15" departLane="best" type="veh_passenger" departSpeed="max"/>
    <trip id="veh106" depart="352.80" from="E0" to="E17" departLane="best" type="veh_passenger"/>
    <trip id="veh107" depart="356.13" from="E9" to="E13" departLane="best" type="veh_passenger" departSpeed="max"/>
    <trip id="veh108" depart="359.46" from="E0" to="E13" departLane="best" type="veh_passenger"/>
    <trip id="veh109" depart="362.79" from="E11" to="E20" departLane="best" type="veh_passenger" departSpeed="max"/>
    <trip id="veh110" depart="366.11" from="E12" to="E20" departLane="best" type="veh_passenger" departSpeed="max"/>
    <trip id="veh111" depart="369.44" from="E16" to="E22" departLane="best" type="veh_passenger" departSpeed="max"/>
    <trip id="veh112" depart="372.77" from="E11" to="E8" departLane="best" type="veh_passenger" departSpeed="max"/>
    <trip id="veh113" depart="376.10" from="E3" to="E14" departLane="best" type="veh_passenger"/>
    <trip id="veh114" depart="379.43" from="E11" to="E8" departLane="best" type="veh_passenger" departSpeed="max"/>
    <trip id="veh115" depart="382.76" from="E23" to="E15" departLane="best" type="veh_passenger" departSpeed="max"/>
    <trip id="veh116" depart="386.08" from="E23" to="E8" departLane="best" type="veh_passenger" departSpeed="max"/>
    <trip id="veh117" depart="389.41" from="E19" to="E17" departLane="best" type="veh_passenger" departSpeed="max"/>
    <trip id="veh118" depart="392.74" from="E19" to="E20" departLane="best" type="veh_passenger" departSpeed="max"/>
    <trip id="veh119" depart="396.07" from="E12" to="E4" departLane="best" type="veh_passenger" departSpeed="max"/>
    <trip id="veh120" depart="399.40" from="E11" to="E22" departLane="best" type="veh_passenger" departSpeed="max"/>
    <trip id="veh121" depart="402.73" from="E11" to="E13" departLane="best" type="veh_passenger" departSpeed="max"/>
    <trip id="veh122" depart="406.05" from="E12" to="E10" departLane="best" type="veh_passenger" departSpeed="max"/>
    <trip id="veh123" depart="409.38" from="E9" to="E17" departLane="best" type="veh_passenger" departSpeed="max"/>
    <trip id="veh124" depart="412.71" from="E12" to="E1" departLane="best" type="veh_passenger" departSpeed="max"/>
    <trip id="veh125" depart="416.04" from="E9" to="E17" departLane="best" type="veh_passenger" departSpeed="max"/>
    <trip id="veh126" depart="419.37" from="E11" to="E20" departLane="best" type="veh_passenger" departSpeed="max"/>
    <trip id="veh127" depart="422.70" from="E9" to="E10" departLane="best" type="veh_passenger" departSpeed="max"/>
    <trip id="veh128" depart="426.02" from="E3" to="E13" departLane="best" type="veh_passenger"/>
    <trip id="veh129" depart="429.35" from="E19" to="E17" departLane="best" type="veh_passenger" departSpeed="max"/>
    <trip id="veh130" depart="432.68" from="E18" to="E6" departLane="best" type="veh_passenger" departSpeed="max"/>
    <trip id="veh131" depart="436.01" from="E9" to="E14" departLane="best" type="veh_passenger" departSpeed="max"/>
    <trip id="veh132" depart="439.34" from="E23" to="E8" departLane="best" type="veh_passenger" departSpeed="max"/>
    <trip id="veh133" depart="442.67" from="E21" to="E13" departLane="best" type="veh_passenger" departSpeed="max"/>
    <trip id="veh134" depart="445.99" from="E12" to="E10" departLane="best" type="veh_passenger" departSpeed="max"/>
    <trip id="veh135" depart="449.32" from="E0" to="E17" departLane="best" type="veh_passenger"/>
    <trip id="veh136" depart="452.65" from="E21" to="E14" departLane="best" type="veh_passenger" departSpeed="max"/>
    <trip id="veh137" depart="455.98" from="E12" to="E22" departLane="best" type="veh_passenger" departSpeed="max"/>
    <trip id="veh138" depart="459.31" from="E23" to="E8" departLane="best" type="veh_passenger" departSpeed="max"/>
    <trip id="veh139" depart="462.64" from="E21" to="E8" departLane="best" type="veh_passenger" departSpeed="max"/>
    <trip id="veh140" depart="465.96" from="E21" to="E8" departLane="best" type="veh_passenger" departSpeed="max"/>
    <trip id="veh141" depart="469.29" from="E9" to="E17" departLane="best" type="veh_passenger" departSpeed="max"/>
    <trip id="veh142" depart="472.62" from="E19" to="E10" departLane="best" type="veh_passenger" departSpeed="max"/>
    <trip id="veh143" depart="475.95" from="E11" to="E8" departLane="best" type="veh_passenger" departSpeed="max"/>
    <trip id="veh144" depart="479.28" from="E19" to="E20" departLane="best" type="veh_passenger" departSpeed="max"/>
    <trip id="veh145" depart="482.61" from="E9" to="E13" departLane="best" type="veh_passenger" departSpeed="max"/>
    <trip id="veh146" depart="485.93" from="E19" to="E10" departLane="best" type="veh_passenger" departSpeed="max"/>
    <trip id="veh147" depart="489.26" from="E21" to="E6" departLane="best" type="veh_passenger" departSpeed="max"/>
    <trip id="veh148" depart="492.59" from="E16" to="E22" departLane="best" type="veh_passenger" departSpeed="max"/>
    <trip id="veh149" depart="495.92" from="E16" to="E8" departLane="best" type="veh_passenger" departSpeed="max"/>
    <trip id="veh150" depart="499.25" from="E16" to="E8" departLane="best" type="veh_passenger" departSpeed="max"/>
    <trip id="veh151" depart="502.58" from="E9" to="E20" departLane="best" type="veh_passenger" departSpeed="max"/>
    <trip id="veh152" depart="505.90" from="E23" to="E13" departLane="best" type="veh_passenger" departSpeed="max"/>
    <trip id="veh153" depart="509.23" from="E11" to="E8" departLane="best" type="veh_passenger" departSpeed="max"/>
    <trip id="veh154" depart="512.56" from="E21" to="E13" departLane="best" type="veh_passenger" departSpeed="max"/>
    <trip id="veh155" depart="515.89" from="E12" to="E2" departLane="best" type="veh_passenger" departSpeed="max"/>
    <trip id="veh156" depart="519.22" from="E19" to="E10" departLane="best" type="veh_passenger" departSpeed="max"/>
    <trip id="veh157" depart="522.54" from="E9" to="E13" departLane="best" type="veh_passenger" departSpeed="max"/>
    <trip id="veh158" depart="525.87" from="E9" to="E17" departLane="best" type="veh_passenger" departSpeed="max"/>
    <trip id="veh159" depart="529.20" from="E19" to="E4" departLane="best" type="veh_passenger" departSpeed="max"/>
    <trip id="veh160" depart="532.53" from="E21" to="E8" departLane="best" type="veh_passenger" departSpeed="max"/>
    <trip id="veh161" depart="535.86" from="E19" to="E10" departLane="best" type="veh_passenger" departSpeed="max"/>
    <trip id="veh162" depart="539.19" from="E12" to="E22" departLane="best" type="veh_passenger" departSpeed="max"/>
    <trip id="veh163" depart="542.51" from="E9" to="E17" departLane="best" type="veh_passenger" departSpeed="max"/>
    <trip id="veh164" depart="545.84" from="E21" to="E6" departLane="best" type="veh_passenger" departSpeed="max"/>
    <trip id="veh165" depart="549.17" from="E19" to="E17" departLane="best" type="veh_passenger" departSpeed="max"/>
    <trip id="veh166" depart="552.50" from="E23" to="E15" departLane="best" type="veh_passenger" departSpeed="max"/>
    <trip id="veh167" depart="555.83" from="E21" to="E13" departLane="best" type="veh_passenger" departSpeed="max"/>
    <trip id="veh168" depart="559.16" from="E16" to="E22" departLane="best" type="veh_passenger" departSpeed="max"/>
    <trip id="veh169" depart="562.48" from="E21" to="E6" departLane="best" type="veh_passenger" departSpeed="max"/>
    <trip id="veh170" depart="565.81" from="E18" to="E14" departLane="best" type="veh_passenger" departSpeed="max"/>
    <trip id="veh171" depart="569.14" from="E11" to="E20" departLane="best" type="veh_passenger" departSpeed="max"/>
    <trip id="veh172" depart="572.47" from="E23" to="E15" departLane="best" type="veh_passenger" departSpeed="max"/>
    <trip id="veh173" depart="575.80" from="E11" to="E20" departLane="best" type="veh_passenger" departSpeed="max"/>
    <trip id="veh174" depart="579.13" from="E23" to="E8" departLane="best" type="veh_passenger" departSpeed="max"/>
    <trip id="veh175" depart="582.45" from="E12" to="E10" departLane="best" type="veh_passenger" departSpeed="max"/>
    <trip id="veh176" depart="585.78" from="E12" to="E8" departLane="best" type="veh_passenger" departSpeed="max"/>
    <trip id="veh177" depart="589.11" from="E7" to="E22" departLane="best" type="veh_passenger"/>
    <trip id="veh178" depart="592.44" from="E16" to="E20" departLane="best" type="veh_passenger" departSpeed="max"/>
    <trip id="veh179" depart="595.77" from="E21" to="E15" departLane="best" type="veh_passenger" departSpeed="max"/>
    <trip id="veh180" depart="599.10" from="E9" to="E14" departLane="best" type="veh_passenger" departSpeed="max"/>
    <trip id="veh181" depart="602.42" from="E9" to="E20" departLane="best" type="veh_passenger" departSpeed="max"/>
    <trip id="veh182" depart="605.75" from="E21" to="E15" departLane="best" type="veh_passenger" departSpeed="max"/>
    <trip id="veh183" depart="609.08" from="E21" to="E8" departLane="best" type="veh_passenger" departSpeed="max"/>
    <trip id="veh184" depart="612.41" from="E21" to="E14" departLane="best" type="veh_passenger" departSpeed="max"/>
    <trip id="veh185" depart="615.74" from="E16" to="E22" departLane="best" type="veh_passenger" departSpeed="max"/>
    <trip id="veh186" depart="619.07" from="E12" to="E10" departLane="best" type="veh_passenger" departSpeed="max"/>
    <trip id="veh187" depart="622.39" from="E9" to="E10" departLane="best" type="veh_passenger" departSpeed="max"/>
    <trip id="veh188" depart="625.72" from="E23" to="E8" departLane="best" type="veh_passenger" departSpeed="max"/>
    <trip id="veh189" depart="629.05" from="E9" to="E4" departLane="best" type="veh_passenger" departSpeed="max"/>
    <trip id="veh190" depart="632.38" from="E0" to="E17" departLane="best" type="veh_passenger"/>
    <trip id="veh191" depart="635.71" from="E5" to="E8" departLane="best" type="veh_passenger"/>
    <trip id="veh192" depart="639.04" from="E11" to="E13" departLane="best" type="veh_passenger" departSpeed="max"/>
    <trip id="veh193" depart="642.36" from="E12" to="E10" departLane="best" type="veh_passenger" departSpeed="max"/>
    <trip id="veh194" depart="645.69" from="E5" to="E8" departLane="best" type="veh_passenger"/>
    <trip id="veh195" depart="649.02" from="E11" to="E8" departLane="best" type="veh_passenger" departSpeed="max"/>
    <trip id="veh196" depart="652.35" from="E23" to="E13" departLane="best" type="veh_passenger" departSpeed="max"/>
    <trip id="veh197" depart="655.68" from="E18" to="E10" departLane="best" type="veh_passenger" departSpeed="max"/>
    <trip id="veh198" depart="659.01" from="E11" to="E22" departLane="best" type="veh_passenger" departSpeed="max"/>
    <trip id="veh199" depart="662.33" from="E12" to="E10" departLane="best" type="veh_passenger" departSpeed="max"/>
    <trip id="veh200" depart="665.66" from="E3" to="E13" departLane="best" type="veh_passenger"/>
    <trip id="veh201" depart="668.99" from="E11" to="E2" departLane="best" type="veh_passenger" departSpeed="max"/>
    <trip id="veh202" depart="672.32" from="E11" to="E22" departLane="best" type="veh_passenger" departSpeed="max"/>
    <trip id="veh203" depart="675.65" from="E12" to="E1" departLane="best" type="veh_passenger" departSpeed="max"/>
    <trip id="veh204" depart="678.98" from="E19" to="E17" departLane="best" type="veh_passenger" departSpeed="max"/>
    <trip id="veh205" depart="682.30" from="E9" to="E10" departLane="best" type="veh_passenger" departSpeed="max"/>
    <trip id="veh206" depart="685.63" from="E9" to="E10" departLane="best" type="veh_passenger" departSpeed="max"/>
    <trip id="veh207" depart="688.96" from="E11" to="E20" departLane="best" type="veh_passenger" departSpeed="max"/>
    <trip id="veh208" depart="692.29" from="E16" to="E8" departLane="best" type="veh_passenger" departSpeed="max"/>
    <trip id="veh209" depart="695.62" from="E19" to="E17" departLane="best" type="veh_passenger" departSpeed="max"/>
    <trip id="veh210" depart="698.95" from="E21" to="E10" departLane="best" type="veh_passenger" departSpeed="max"/>
    <trip id="veh211" depart="702.27" from="E23" to="E6" departLane="best" type="veh_passenger" departSpeed="max"/>
    <trip id="veh212" depart="705.60" from="E23" to="E13" departLane="best" type="veh_passenger" departSpeed="max"/>
    <trip id="veh213" depart="708.93" from="E18" to="E10" departLane="best" type="veh_passenger" departSpeed="max"/>
    <trip id="veh214" depart="712.26" from="E18" to="E13" departLane="best" type="veh_passenger" departSpeed="max"/>
    <trip id="veh215" depart="715.59" from="E9" to="E10" departLane="best" type="veh_passenger" departSpeed="max"/>
    <trip id="veh216" depart="718.92" from="E11" to="E22" departLane="best" type="veh_passenger" departSpeed="max"/>
    <trip id="veh217" depart="722.24" from="E23" to="E6" departLane="best" type="veh_passenger" departSpeed="max"/>
    <trip id="veh218" depart="725.57" from="E23" to="E8" departLane="best" type="veh_passenger" departSpeed="max"/>
    <trip id="veh219" depart="728.90" from="E21" to="E15" departLane="best" type="veh_passenger" departSpeed="max"/>
    <trip id="veh220" depart="732.23" from="E21" to="E13" departLane="best" type="veh_passenger" departSpeed="max"/>
    <trip id="veh221" depart="735.56" from="E21" to="E13" departLane="best" type="veh_passenger" departSpeed="max"/>
    <trip id="veh222" depart="738.89" from="E11" to="E5" departLane="best" type="veh_passenger" departSpeed="max"/>
    <trip id="veh223" depart="742.21" from="E5" to="E8" departLane="best" type="veh_passenger"/>
    <trip id="veh224" depart="745.54" from="E18" to="E10" departLane="best" type="veh_passenger" departSpeed="max"/>
    <trip id="veh225" depart="748.87" from="E23" to="E13" departLane="best" type="veh_passenger" departSpeed="max"/>
    <trip id="veh226" depart="752.20" from="E18" to="E14" departLane="best" type="veh_passenger" departSpeed="max"/>
    <trip id="veh227" depart="755.53" from="E11" to="E1" departLane="best" type="veh_passenger" departSpeed="max"/>
    <trip id="veh228" depart="758.85" from="E12" to="E20" departLane="best" type="veh_passenger" departSpeed="max"/>
    <trip id="veh229" depart="762.18" from="E18" to="E14" departLane="best" type="veh_passenger" departSpeed="max"/>
    <trip id="veh230" depart="765.51" from="E18" to="E14" departLane="best" type="veh_passenger" departSpeed="max"/>
    <trip id="veh231" depart="768.84" from="E0" to="E14" departLane="best" type="veh_passenger"/>
    <trip id="veh232" depart="772.17" from="E12" to="E10" departLane="best" type="veh_passenger" departSpeed="max"/>
    <trip id="veh233" depart="775.50" from="E11" to="E6" departLane="best" type="veh_passenger" departSpeed="max"/>
    <trip id="veh234" depart="778.82" from="E23" to="E15" departLane="best" type="veh_passenger" departSpeed="max"/>
    <trip id="veh235" depart="782.15" from="E9" to="E10" departLane="best" type="veh_passenger" departSpeed="max"/>
    <trip id="veh236" depart="785.48" from="E5" to="E13" departLane="best" type="veh_passenger"/>
    <trip id="veh237" depart="788.81" from="E18" to="E14" departLane="best" type="veh_passenger" departSpeed="max"/>
    <trip id="veh238" depart="792.14" from="E12" to="E17" departLane="best" type="veh_passenger" departSpeed="max"/>
    <trip id="veh239" depart="795.47" from="E11" to="E13" departLane="best" type="veh_passenger" departSpeed="max"/>
    <trip id="veh240" depart="798.79" from="E21" to="E13" departLane="best" type="veh_passenger" departSpeed="max"/>
    <trip id="veh241" depart="802.12" from="E21" to="E6" departLane="best" type="veh_passenger" departSpeed="max"/>
    <trip id="veh242" depart="805.45" from="E21" to="E10" departLane="best" type="veh_passenger" departSpeed="max"/>
    <trip id="veh243" depart="808.78" from="E11" to="E15" departLane="best" type="veh_passenger" departSpeed="max"/>
    <trip id="veh244" depart="812.11" from="E11" to="E5" departLane="best" type="veh_passenger" departSpeed="max"/>
    <trip id="veh245" depart="815.44" from="E11" to="E6" departLane="best" type="veh_passenger" departSpeed="max"/>
    <trip id="veh246" depart="818.76" from="E19" to="E17" departLane="best" type="veh_passenger" departSpeed="max"/>
    <trip id="veh247" depart="822.09" from="E16" to="E22" departLane="best" type="veh_passenger" departSpeed="max"/>
    <trip id="veh248" depart="825.42" from="E16" to="E20" departLane="best" type="veh_passenger" departSpeed="max"/>
    <trip id="veh249" depart="828.75" from="E16" to="E20" departLane="best" type="veh_passenger" departSpeed="max"/>
    <trip id="veh250" depart="832.08" from="E11" to="E15" departLane="best" type="veh_passenger" departSpeed="max"/>
    <trip id="veh251" depart="835.41" from="E9" to="E14" departLane="best" type="veh_passenger" departSpeed="max"/>