<?xml version="1.0" encoding="UTF-8"?>

<!-- generated on 2025-07-17 17:01:33.565176 by randomTrips.py v1_23_1+0000-676720d13f6
<configuration>
    <net-file value="osm.net.xml.gz"/>
    <output-trip-file value="osm.res_truck.trips.xml"/>
    <prefix value="res_truck"/>
    <trip-attributes value="departLane='best'"/>
    <fringe-start-attributes value="departSpeed='max'"/>
    <vehicle-class value="truck"/>
    <edge-permission value="truck"/>
    <remove-loops value="True"/>
    <validate value="True"/>
    <insertion-rate value="50.0"/>
</configuration>
-->

<routes xmlns:xsi="http://www.w3.org/2001/XMLSchema-instance" xsi:noNamespaceSchemaLocation="http://sumo.dlr.de/xsd/routes_file.xsd">
    <vType id="res_truck_truck" vClass="truck"/>
    <trip id="res_truck0" depart="0.00" from="E18" to="E14" departLane='best' type="res_truck_truck" departSpeed='max'/>
    <trip id="res_truck1" depart="72.00" from="E36" to="E32" departLane='best' type="res_truck_truck" departSpeed='max'/>
    <trip id="res_truck2" depart="144.00" from="E16" to="E25" departLane='best' type="res_truck_truck" departSpeed='max'/>
    <trip id="res_truck3" depart="216.00" from="E0" to="E13" departLane='best' type="res_truck_truck"/>
    <trip id="res_truck4" depart="288.00" from="E31" to="E25" departLane='best' type="res_truck_truck" departSpeed='max'/>
    <trip id="res_truck5" depart="360.00" from="E16" to="E28" departLane='best' type="res_truck_truck" departSpeed='max'/>
    <trip id="res_truck6" depart="432.00" from="E5" to="E32" departLane='best' type="res_truck_truck"/>
    <trip id="res_truck7" depart="504.00" from="E9" to="E17" departLane='best' type="res_truck_truck" departSpeed='max'/>
    <trip id="res_truck8" depart="576.00" from="E1" to="E1" departLane='best' type="res_truck_truck"/>
    <trip id="res_truck9" depart="648.00" from="E27" to="E8" departLane='best' type="res_truck_truck" departSpeed='max'/>
    <trip id="res_truck10" depart="720.00" from="E21" to="E28" departLane='best' type="res_truck_truck" departSpeed='max'/>
    <trip id="res_truck11" depart="792.00" from="E16" to="E15" departLane='best' type="res_truck_truck" departSpeed='max'/>
    <trip id="res_truck12" depart="864.00" from="E11" to="E15" departLane='best' type="res_truck_truck" departSpeed='max'/>
    <trip id="res_truck13" depart="936.00" from="E31" to="E2" departLane='best' type="res_truck_truck" departSpeed='max'/>
    <trip id="res_truck14" depart="1008.00" from="E21" to="E14" departLane='best' type="res_truck_truck" departSpeed='max'/>
    <trip id="res_truck15" depart="1080.00" from="E12" to="E35" departLane='best' type="res_truck_truck" departSpeed='max'/>
    <trip id="res_truck16" depart="1152.00" from="E12" to="E2" departLane='best' type="res_truck_truck" departSpeed='max'/>
    <trip id="res_truck17" depart="1224.00" from="E3" to="E32" departLane='best' type="res_truck_truck"/>
    <trip id="res_truck18" depart="1296.00" from="E33" to="E2" departLane='best' type="res_truck_truck" departSpeed='max'/>
    <trip id="res_truck19" depart="1368.00" from="E7" to="E22" departLane='best' type="res_truck_truck"/>
    <trip id="res_truck20" depart="1440.00" from="E18" to="E14" departLane='best' type="res_truck_truck" departSpeed='max'/>
    <trip id="res_truck21" depart="1512.00" from="E3" to="E15" departLane='best' type="res_truck_truck"/>
    <trip id="res_truck22" depart="1584.00" from="E3" to="E6" departLane='best' type="res_truck_truck"/>
    <trip id="res_truck23" depart="1656.00" from="E21" to="E14" departLane='best' type="res_truck_truck" departSpeed='max'/>
    <trip id="res_truck24" depart="1728.00" from="E9" to="E25" departLane='best' type="res_truck_truck" departSpeed='max'/>
    <trip id="res_truck25" depart="1800.00" from="E9" to="E25" departLane='best' type="res_truck_truck" departSpeed='max'/>
    <trip id="res_truck26" depart="1872.00" from="E9" to="E6" departLane='best' type="res_truck_truck" departSpeed='max'/>
    <trip id="res_truck27" depart="1944.00" from="E0" to="E35" departLane='best' type="res_truck_truck"/>
    <trip id="res_truck28" depart="2016.00" from="E33" to="E25" departLane='best' type="res_truck_truck" departSpeed='max'/>
    <trip id="res_truck29" depart="2088.00" from="E11" to="E20" departLane='best' type="res_truck_truck" departSpeed='max'/>
    <trip id="res_truck30" depart="2160.00" from="E24" to="E8" departLane='best' type="res_truck_truck" departSpeed='max'/>
    <trip id="res_truck31" depart="2232.00" from="E27" to="E13" departLane='best' type="res_truck_truck" departSpeed='max'/>
    <trip id="res_truck32" depart="2304.00" from="E31" to="E13" departLane='best' type="res_truck_truck" departSpeed='max'/>
    <trip id="res_truck33" depart="2376.00" from="E0" to="E17" departLane='best' type="res_truck_truck"/>
    <trip id="res_truck34" depart="2448.00" from="E4" to="E10" departLane='best' type="res_truck_truck"/>
    <trip id="res_truck35" depart="2520.00" from="E24" to="E25" departLane='best' type="res_truck_truck" departSpeed='max'/>
    <trip id="res_truck36" depart="2592.00" from="E18" to="E6" departLane='best' type="res_truck_truck" departSpeed='max'/>
    <trip id="res_truck37" depart="2664.00" from="E23" to="E14" departLane='best' type="res_truck_truck" departSpeed='max'/>
    <trip id="res_truck38" depart="2736.00" from="E27" to="E35" departLane='best' type="res_truck_truck" departSpeed='max'/>
    <trip id="res_truck39" depart="2808.00" from="E16" to="E17" departLane='best' type="res_truck_truck" departSpeed='max'/>
    <trip id="res_truck40" depart="2880.00" from="E11" to="E14" departLane='best' type="res_truck_truck" departSpeed='max'/>
    <trip id="res_truck41" depart="2952.00" from="E16" to="E14" departLane='best' type="res_truck_truck" departSpeed='max'/>
    <trip id="res_truck42" depart="3024.00" from="E16" to="E32" departLane='best' type="res_truck_truck" departSpeed='max'/>
    <trip id="res_truck43" depart="3096.00" from="E16" to="E10" departLane='best' type="res_truck_truck" departSpeed='max'/>
    <trip id="res_truck44" depart="3168.00" from="E7" to="E28" departLane='best' type="res_truck_truck"/>
    <trip id="res_truck45" depart="3240.00" from="E24" to="E4" departLane='best' type="res_truck_truck" departSpeed='max'/>
    <trip id="res_truck46" depart="3312.00" from="E5" to="E13" departLane='best' type="res_truck_truck"/>
    <trip id="res_truck47" depart="3384.00" from="E23" to="E22" departLane='best' type="res_truck_truck" departSpeed='max'/>
    <trip id="res_truck48" depart="3456.00" from="E36" to="E32" departLane='best' type="res_truck_truck" departSpeed='max'/>
    <trip id="res_truck49" depart="3528.00" from="E23" to="E17" departLane='best' type="res_truck_truck" departSpeed='max'/>
</routes>
