<?xml version="1.0" encoding="UTF-8"?>

<!-- generated on 2025-07-12 21:49:12.080351 by randomTrips.py v1_23_1+0000-676720d13f6
<configuration>
    <net-file value="osm.net.xml.gz"/>
    <output-trip-file value="osm.passenger.trips.xml"/>
    <route-file value="osm.passenger.rou.xml"/>
    <prefix value="veh"/>
    <trip-attributes value="departLane=&quot;best&quot;"/>
    <fringe-start-attributes value="departSpeed=&quot;max&quot;"/>
    <vehicle-class value="passenger"/>
    <lanes value="True"/>
    <fringe-factor value="5"/>
    <allow-fringe.min-length value="10000.0"/>
    <edge-permission value="passenger"/>
    <via-edge-types value="highway.motorway,highway.motorway_link,highway.trunk_link,highway.primary_link,highway.secondary_link,highway.tertiary_link"/>
    <min-distance value="300.0"/>
    <min-distance.fringe value="100.0"/>
    <remove-loops value="True"/>
    <validate value="True"/>
    <insertion-density value="120.0"/>
</configuration>
-->

<!-- generated on 2025-07-12 21:49:11 by Eclipse SUMO duarouter Version 1.23.1
<duarouterConfiguration xmlns:xsi="http://www.w3.org/2001/XMLSchema-instance" xsi:noNamespaceSchemaLocation="http://sumo.dlr.de/xsd/duarouterConfiguration.xsd">

    <input>
        <net-file value="osm.net.xml.gz"/>
        <route-files value="osm.passenger.trips.xml"/>
    </input>

    <output>
        <output-file value="osm.passenger.trips.xml.tmp"/>
        <alternatives-output value="NUL"/>
        <write-trips value="true"/>
    </output>

    <processing>
        <remove-loops value="true"/>
    </processing>

    <time>
        <begin value="0.0"/>
        <end value="3600.0"/>
    </time>

    <report>
        <no-warnings value="true"/>
        <ignore-errors value="true"/>
        <no-step-log value="true"/>
    </report>

</duarouterConfiguration>
-->

<routes xmlns:xsi="http://www.w3.org/2001/XMLSchema-instance" xsi:noNamespaceSchemaLocation="http://sumo.dlr.de/xsd/routes_file.xsd">
    <vType id="veh_passenger" vClass="passenger"/>
    <trip id="veh0" type="veh_passenger" depart="0.00" departLane="best" from="E7" to="E10"/>
    <trip id="veh1" type="veh_passenger" depart="3.36" departLane="best" departSpeed="max" from="E12" to="E17"/>
    <trip id="veh2" type="veh_passenger" depart="6.73" departLane="best" departSpeed="max" from="E12" to="E20"/>
    <trip id="veh3" type="veh_passenger" depart="10.09" departLane="best" departSpeed="max" from="E9" to="E14"/>
    <trip id="veh4" type="veh_passenger" depart="13.45" departLane="best" departSpeed="max" from="E11" to="E13"/>
    <trip id="veh5" type="veh_passenger" depart="16.82" departLane="best" departSpeed="max" from="E21" to="E15"/>
    <trip id="veh6" type="veh_passenger" depart="20.18" departLane="best" departSpeed="max" from="E18" to="E13"/>
    <trip id="veh7" type="veh_passenger" depart="23.54" departLane="best" departSpeed="max" from="E16" to="E8"/>
    <trip id="veh8" type="veh_passenger" depart="26.91" departLane="best" departSpeed="max" from="E12" to="E22"/>
    <trip id="veh9" type="veh_passenger" depart="30.27" departLane="best" departSpeed="max" from="E9" to="E20"/>
    <trip id="veh10" type="veh_passenger" depart="33.63" departLane="best" departSpeed="max" from="E12" to="E1"/>
    <trip id="veh11" type="veh_passenger" depart="37.00" departLane="best" departSpeed="max" from="E12" to="E8"/>
    <trip id="veh12" type="veh_passenger" depart="40.36" departLane="best" departSpeed="max" from="E21" to="E15"/>
    <trip id="veh13" type="veh_passenger" depart="43.72" departLane="best" departSpeed="max" from="E9" to="E17"/>
    <trip id="veh14" type="veh_passenger" depart="47.08" departLane="best" departSpeed="max" from="E18" to="E13"/>
    <trip id="veh15" type="veh_passenger" depart="50.45" departLane="best" departSpeed="max" from="E9" to="E17"/>
    <trip id="veh16" type="veh_passenger" depart="53.81" departLane="best" departSpeed="max" from="E11" to="E1"/>
    <trip id="veh17" type="veh_passenger" depart="57.17" departLane="best" departSpeed="max" from="E11" to="E20"/>
    <trip id="veh18" type="veh_passenger" depart="60.54" departLane="best" departSpeed="max" from="E11" to="E15"/>
    <trip id="veh19" type="veh_passenger" depart="63.90" departLane="best" departSpeed="max" from="E9" to="E17"/>
    <trip id="veh20" type="veh_passenger" depart="67.26" departLane="best" departSpeed="max" from="E16" to="E20"/>
    <trip id="veh21" type="veh_passenger" depart="70.63" departLane="best" departSpeed="max" from="E11" to="E15"/>
    <trip id="veh22" type="veh_passenger" depart="73.99" departLane="best" departSpeed="max" from="E16" to="E20"/>
    <trip id="veh23" type="veh_passenger" depart="77.35" departLane="best" departSpeed="max" from="E21" to="E13"/>
    <trip id="veh24" type="veh_passenger" depart="80.72" departLane="best" from="E0" to="E14"/>
    <trip id="veh25" type="veh_passenger" depart="84.08" departLane="best" departSpeed="max" from="E11" to="E22"/>
    <trip id="veh26" type="veh_passenger" depart="87.44" departLane="best" departSpeed="max" from="E19" to="E2"/>
    <trip id="veh27" type="veh_passenger" depart="90.81" departLane="best" departSpeed="max" from="E18" to="E13"/>
    <trip id="veh28" type="veh_passenger" depart="94.17" departLane="best" departSpeed="max" from="E9" to="E20"/>
    <trip id="veh29" type="veh_passenger" depart="97.53" departLane="best" departSpeed="max" from="E11" to="E13"/>
    <trip id="veh30" type="veh_passenger" depart="100.90" departLane="best" departSpeed="max" from="E16" to="E20"/>
    <trip id="veh31" type="veh_passenger" depart="104.26" departLane="best" departSpeed="max" from="E11" to="E20"/>
    <trip id="veh32" type="veh_passenger" depart="107.62" departLane="best" departSpeed="max" from="E12" to="E8"/>
    <trip id="veh33" type="veh_passenger" depart="110.99" departLane="best" departSpeed="max" from="E12" to="E20"/>
    <trip id="veh34" type="veh_passenger" depart="114.35" departLane="best" departSpeed="max" from="E12" to="E10"/>
    <trip id="veh35" type="veh_passenger" depart="117.71" departLane="best" departSpeed="max" from="E11" to="E15"/>
    <trip id="veh36" type="veh_passenger" depart="121.08" departLane="best" departSpeed="max" from="E9" to="E10"/>
    <trip id="veh37" type="veh_passenger" depart="124.44" departLane="best" departSpeed="max" from="E18" to="E14"/>
    <trip id="veh38" type="veh_passenger" depart="127.80" departLane="best" departSpeed="max" from="E12" to="E17"/>
    <trip id="veh39" type="veh_passenger" depart="131.16" departLane="best" departSpeed="max" from="E18" to="E14"/>
    <trip id="veh40" type="veh_passenger" depart="134.53" departLane="best" departSpeed="max" from="E12" to="E8"/>
    <trip id="veh41" type="veh_passenger" depart="137.89" departLane="best" departSpeed="max" from="E18" to="E6"/>
    <trip id="veh42" type="veh_passenger" depart="141.25" departLane="best" departSpeed="max" from="E18" to="E10"/>
    <trip id="veh43" type="veh_passenger" depart="144.62" departLane="best" departSpeed="max" from="E9" to="E20"/>
    <trip id="veh44" type="veh_passenger" depart="147.98" departLane="best" departSpeed="max" from="E11" to="E20"/>
    <trip id="veh45" type="veh_passenger" depart="151.34" departLane="best" departSpeed="max" from="E12" to="E8"/>
    <trip id="veh46" type="veh_passenger" depart="154.71" departLane="best" departSpeed="max" from="E11" to="E13"/>
    <trip id="veh47" type="veh_passenger" depart="158.07" departLane="best" departSpeed="max" from="E12" to="E10"/>
    <trip id="veh48" type="veh_passenger" depart="161.43" departLane="best" departSpeed="max" from="E12" to="E22"/>
    <trip id="veh49" type="veh_passenger" depart="164.80" departLane="best" departSpeed="max" from="E16" to="E22"/>
    <trip id="veh50" type="veh_passenger" depart="168.16" departLane="best" departSpeed="max" from="E11" to="E13"/>
    <trip id="veh51" type="veh_passenger" depart="171.52" departLane="best" departSpeed="max" from="E16" to="E8"/>
    <trip id="veh52" type="veh_passenger" depart="174.89" departLane="best" departSpeed="max" from="E18" to="E13"/>
    <trip id="veh53" type="veh_passenger" depart="178.25" departLane="best" from="E5" to="E22"/>
    <trip id="veh54" type="veh_passenger" depart="181.61" departLane="best" departSpeed="max" from="E21" to="E8"/>
    <trip id="veh55" type="veh_passenger" depart="184.98" departLane="best" departSpeed="max" from="E21" to="E8"/>
    <trip id="veh56" type="veh_passenger" depart="188.34" departLane="best" departSpeed="max" from="E11" to="E2"/>
    <trip id="veh57" type="veh_passenger" depart="191.70" departLane="best" departSpeed="max" from="E16" to="E20"/>
    <trip id="veh58" type="veh_passenger" depart="195.07" departLane="best" departSpeed="max" from="E23" to="E13"/>
    <trip id="veh59" type="veh_passenger" depart="198.43" departLane="best" departSpeed="max" from="E21" to="E14"/>
    <trip id="veh60" type="veh_passenger" depart="201.79" departLane="best" departSpeed="max" from="E18" to="E14"/>
    <trip id="veh61" type="veh_passenger" depart="205.16" departLane="best" departSpeed="max" from="E21" to="E14"/>
    <trip id="veh62" type="veh_passenger" depart="208.52" departLane="best" departSpeed="max" from="E9" to="E17"/>
    <trip id="veh63" type="veh_passenger" depart="211.88" departLane="best" departSpeed="max" from="E12" to="E10"/>
    <trip id="veh64" type="veh_passenger" depart="215.24" departLane="best" departSpeed="max" from="E12" to="E8"/>
    <trip id="veh65" type="veh_passenger" depart="218.61" departLane="best" departSpeed="max" from="E16" to="E8"/>
    <trip id="veh66" type="veh_passenger" depart="221.97" departLane="best" from="E3" to="E10"/>
    <trip id="veh67" type="veh_passenger" depart="225.33" departLane="best" departSpeed="max" from="E12" to="E4"/>
    <trip id="veh68" type="veh_passenger" depart="228.70" departLane="best" from="E3" to="E13"/>
    <trip id="veh69" type="veh_passenger" depart="232.06" departLane="best" from="E0" to="E13"/>
    <trip id="veh70" type="veh_passenger" depart="235.42" departLane="best" departSpeed="max" from="E9" to="E14"/>
    <trip id="veh71" type="veh_passenger" depart="238.79" departLane="best" departSpeed="max" from="E21" to="E15"/>
    <trip id="veh72" type="veh_passenger" depart="242.15" departLane="best" departSpeed="max" from="E9" to="E17"/>
    <trip id="veh73" type="veh_passenger" depart="245.51" departLane="best" departSpeed="max" from="E9" to="E10"/>
    <trip id="veh74" type="veh_passenger" depart="248.88" departLane="best" departSpeed="max" from="E9" to="E13"/>
    <trip id="veh75" type="veh_passenger" depart="252.24" departLane="best" departSpeed="max" from="E9" to="E14"/>
    <trip id="veh76" type="veh_passenger" depart="255.60" departLane="best" departSpeed="max" from="E11" to="E15"/>
    <trip id="veh77" type="veh_passenger" depart="258.97" departLane="best" departSpeed="max" from="E16" to="E22"/>
    <trip id="veh78" type="veh_passenger" depart="262.33" departLane="best" departSpeed="max" from="E18" to="E10"/>
    <trip id="veh79" type="veh_passenger" depart="265.69" departLane="best" departSpeed="max" from="E21" to="E14"/>
    <trip id="veh80" type="veh_passenger" depart="269.06" departLane="best" departSpeed="max" from="E18" to="E14"/>
    <trip id="veh81" type="veh_passenger" depart="272.42" departLane="best" departSpeed="max" from="E11" to="E15"/>
    <trip id="veh82" type="veh_passenger" depart="275.78" departLane="best" departSpeed="max" from="E9" to="E20"/>
    <trip id="veh83" type="veh_passenger" depart="279.15" departLane="best" from="E0" to="E14"/>
    <trip id="veh84" type="veh_passenger" depart="282.51" departLane="best" departSpeed="max" from="E18" to="E13"/>
    <trip id="veh85" type="veh_passenger" depart="285.87" departLane="best" from="E3" to="E13"/>
    <trip id="veh86" type="veh_passenger" depart="289.24" departLane="best" departSpeed="max" from="E21" to="E14"/>
    <trip id="veh87" type="veh_passenger" depart="292.60" departLane="best" departSpeed="max" from="E23" to="E13"/>
    <trip id="veh88" type="veh_passenger" depart="295.96" departLane="best" departSpeed="max" from="E12" to="E17"/>
    <trip id="veh89" type="veh_passenger" depart="299.33" departLane="best" departSpeed="max" from="E12" to="E22"/>
    <trip id="veh90" type="veh_passenger" depart="302.69" departLane="best" departSpeed="max" from="E11" to="E15"/>
    <trip id="veh91" type="veh_passenger" depart="306.05" departLane="best" departSpeed="max" from="E12" to="E8"/>
    <trip id="veh92" type="veh_passenger" depart="309.41" departLane="best" departSpeed="max" from="E19" to="E4"/>
    <trip id="veh93" type="veh_passenger" depart="312.78" departLane="best" departSpeed="max" from="E21" to="E8"/>
    <trip id="veh94" type="veh_passenger" depart="316.14" departLane="best" departSpeed="max" from="E21" to="E8"/>
    <trip id="veh95" type="veh_passenger" depart="319.50" departLane="best" from="E7" to="E20"/>
    <trip id="veh96" type="veh_passenger" depart="322.87" departLane="best" from="E7" to="E22"/>
    <trip id="veh97" type="veh_passenger" depart="326.23" departLane="best" departSpeed="max" from="E12" to="E20"/>
    <trip id="veh98" type="veh_passenger" depart="329.59" departLane="best" departSpeed="max" from="E21" to="E14"/>
    <trip id="veh99" type="veh_passenger" depart="332.96" departLane="best" departSpeed="max" from="E19" to="E10"/>
    <trip id="veh100" type="veh_passenger" depart="336.32" departLane="best" departSpeed="max" from="E12" to="E22"/>
    <trip id="veh101" type="veh_passenger" depart="339.68" departLane="best" departSpeed="max" from="E18" to="E13"/>
    <trip id="veh102" type="veh_passenger" depart="343.05" departLane="best" departSpeed="max" from="E16" to="E22"/>
    <trip id="veh103" type="veh_passenger" depart="346.41" departLane="best" departSpeed="max" from="E18" to="E13"/>
    <trip id="veh104" type="veh_passenger" depart="349.77" departLane="best" departSpeed="max" from="E19" to="E10"/>
    <trip id="veh105" type="veh_passenger" depart="353.14" departLane="best" departSpeed="max" from="E23" to="E15"/>
    <trip id="veh106" type="veh_passenger" depart="356.50" departLane="best" from="E0" to="E17"/>
    <trip id="veh107" type="veh_passenger" depart="359.86" departLane="best" departSpeed="max" from="E9" to="E13"/>
    <trip id="veh108" type="veh_passenger" depart="363.23" departLane="best" from="E0" to="E13"/>
    <trip id="veh109" type="veh_passenger" depart="366.59" departLane="best" departSpeed="max" from="E11" to="E20"/>
    <trip id="veh110" type="veh_passenger" depart="369.95" departLane="best" departSpeed="max" from="E12" to="E20"/>
    <trip id="veh111" type="veh_passenger" depart="373.32" departLane="best" departSpeed="max" from="E16" to="E22"/>
    <trip id="veh112" type="veh_passenger" depart="376.68" departLane="best" departSpeed="max" from="E11" to="E8"/>
    <trip id="veh113" type="veh_passenger" depart="380.04" departLane="best" from="E3" to="E14"/>
    <trip id="veh114" type="veh_passenger" depart="383.41" departLane="best" departSpeed="max" from="E11" to="E8"/>
    <trip id="veh115" type="veh_passenger" depart="386.77" departLane="best" departSpeed="max" from="E23" to="E15"/>
    <trip id="veh116" type="veh_passenger" depart="390.13" departLane="best" departSpeed="max" from="E23" to="E8"/>
    <trip id="veh117" type="veh_passenger" depart="393.49" departLane="best" departSpeed="max" from="E19" to="E17"/>
    <trip id="veh118" type="veh_passenger" depart="396.86" departLane="best" departSpeed="max" from="E19" to="E20"/>
    <trip id="veh119" type="veh_passenger" depart="400.22" departLane="best" departSpeed="max" from="E12" to="E4"/>
    <trip id="veh120" type="veh_passenger" depart="403.58" departLane="best" departSpeed="max" from="E11" to="E22"/>
    <trip id="veh121" type="veh_passenger" depart="406.95" departLane="best" departSpeed="max" from="E11" to="E13"/>
    <trip id="veh122" type="veh_passenger" depart="410.31" departLane="best" departSpeed="max" from="E12" to="E10"/>
    <trip id="veh123" type="veh_passenger" depart="413.67" departLane="best" departSpeed="max" from="E9" to="E17"/>
    <trip id="veh124" type="veh_passenger" depart="417.04" departLane="best" departSpeed="max" from="E12" to="E1"/>
    <trip id="veh125" type="veh_passenger" depart="420.40" departLane="best" departSpeed="max" from="E9" to="E17"/>
    <trip id="veh126" type="veh_passenger" depart="423.76" departLane="best" departSpeed="max" from="E11" to="E20"/>
    <trip id="veh127" type="veh_passenger" depart="427.13" departLane="best" departSpeed="max" from="E9" to="E10"/>
    <trip id="veh128" type="veh_passenger" depart="430.49" departLane="best" from="E3" to="E13"/>
    <trip id="veh129" type="veh_passenger" depart="433.85" departLane="best" departSpeed="max" from="E19" to="E17"/>
    <trip id="veh130" type="veh_passenger" depart="437.22" departLane="best" departSpeed="max" from="E18" to="E6"/>
    <trip id="veh131" type="veh_passenger" depart="440.58" departLane="best" departSpeed="max" from="E9" to="E14"/>
    <trip id="veh132" type="veh_passenger" depart="443.94" departLane="best" departSpeed="max" from="E23" to="E8"/>
    <trip id="veh133" type="veh_passenger" depart="447.31" departLane="best" departSpeed="max" from="E21" to="E13"/>
    <trip id="veh134" type="veh_passenger" depart="450.67" departLane="best" departSpeed="max" from="E12" to="E10"/>
    <trip id="veh135" type="veh_passenger" depart="454.03" departLane="best" from="E0" to="E17"/>
    <trip id="veh136" type="veh_passenger" depart="457.40" departLane="best" departSpeed="max" from="E21" to="E14"/>
    <trip id="veh137" type="veh_passenger" depart="460.76" departLane="best" departSpeed="max" from="E12" to="E22"/>
    <trip id="veh138" type="veh_passenger" depart="464.12" departLane="best" departSpeed="max" from="E23" to="E8"/>
    <trip id="veh139" type="veh_passenger" depart="467.49" departLane="best" departSpeed="max" from="E21" to="E8"/>
    <trip id="veh140" type="veh_passenger" depart="470.85" departLane="best" departSpeed="max" from="E21" to="E8"/>
    <trip id="veh141" type="veh_passenger" depart="474.21" departLane="best" departSpeed="max" from="E9" to="E17"/>
    <trip id="veh142" type="veh_passenger" depart="477.57" departLane="best" departSpeed="max" from="E19" to="E10"/>
    <trip id="veh143" type="veh_passenger" depart="480.94" departLane="best" departSpeed="max" from="E11" to="E8"/>
    <trip id="veh144" type="veh_passenger" depart="484.30" departLane="best" departSpeed="max" from="E19" to="E20"/>
    <trip id="veh145" type="veh_passenger" depart="487.66" departLane="best" departSpeed="max" from="E9" to="E13"/>
    <trip id="veh146" type="veh_passenger" depart="491.03" departLane="best" departSpeed="max" from="E19" to="E10"/>
    <trip id="veh147" type="veh_passenger" depart="494.39" departLane="best" departSpeed="max" from="E21" to="E6"/>
    <trip id="veh148" type="veh_passenger" depart="497.75" departLane="best" departSpeed="max" from="E16" to="E22"/>
    <trip id="veh149" type="veh_passenger" depart="501.12" departLane="best" departSpeed="max" from="E16" to="E8"/>
    <trip id="veh150" type="veh_passenger" depart="504.48" departLane="best" departSpeed="max" from="E16" to="E8"/>
    <trip id="veh151" type="veh_passenger" depart="507.84" departLane="best" departSpeed="max" from="E9" to="E20"/>
    <trip id="veh152" type="veh_passenger" depart="511.21" departLane="best" departSpeed="max" from="E23" to="E13"/>
    <trip id="veh153" type="veh_passenger" depart="514.57" departLane="best" departSpeed="max" from="E11" to="E8"/>
    <trip id="veh154" type="veh_passenger" depart="517.93" departLane="best" departSpeed="max" from="E21" to="E13"/>
    <trip id="veh155" type="veh_passenger" depart="521.30" departLane="best" departSpeed="max" from="E12" to="E2"/>
    <trip id="veh156" type="veh_passenger" depart="524.66" departLane="best" departSpeed="max" from="E19" to="E10"/>
    <trip id="veh157" type="veh_passenger" depart="528.02" departLane="best" departSpeed="max" from="E9" to="E13"/>
    <trip id="veh158" type="veh_passenger" depart="531.39" departLane="best" departSpeed="max" from="E9" to="E17"/>
    <trip id="veh159" type="veh_passenger" depart="534.75" departLane="best" departSpeed="max" from="E19" to="E4"/>
    <trip id="veh160" type="veh_passenger" depart="538.11" departLane="best" departSpeed="max" from="E21" to="E8"/>
    <trip id="veh161" type="veh_passenger" depart="541.48" departLane="best" departSpeed="max" from="E19" to="E10"/>
    <trip id="veh162" type="veh_passenger" depart="544.84" departLane="best" departSpeed="max" from="E12" to="E22"/>
    <trip id="veh163" type="veh_passenger" depart="548.20" departLane="best" departSpeed="max" from="E9" to="E17"/>
    <trip id="veh164" type="veh_passenger" depart="551.57" departLane="best" departSpeed="max" from="E21" to="E6"/>
    <trip id="veh165" type="veh_passenger" depart="554.93" departLane="best" departSpeed="max" from="E19" to="E17"/>
    <trip id="veh166" type="veh_passenger" depart="558.29" departLane="best" departSpeed="max" from="E23" to="E15"/>
    <trip id="veh167" type="veh_passenger" depart="561.65" departLane="best" departSpeed="max" from="E21" to="E13"/>
    <trip id="veh168" type="veh_passenger" depart="565.02" departLane="best" departSpeed="max" from="E16" to="E22"/>
    <trip id="veh169" type="veh_passenger" depart="568.38" departLane="best" departSpeed="max" from="E21" to="E6"/>
    <trip id="veh170" type="veh_passenger" depart="571.74" departLane="best" departSpeed="max" from="E18" to="E14"/>
    <trip id="veh171" type="veh_passenger" depart="575.11" departLane="best" departSpeed="max" from="E11" to="E20"/>
    <trip id="veh172" type="veh_passenger" depart="578.47" departLane="best" departSpeed="max" from="E23" to="E15"/>
    <trip id="veh173" type="veh_passenger" depart="581.83" departLane="best" departSpeed="max" from="E11" to="E20"/>
    <trip id="veh174" type="veh_passenger" depart="585.20" departLane="best" departSpeed="max" from="E23" to="E8"/>
    <trip id="veh175" type="veh_passenger" depart="588.56" departLane="best" departSpeed="max" from="E12" to="E10"/>
    <trip id="veh176" type="veh_passenger" depart="591.92" departLane="best" departSpeed="max" from="E12" to="E8"/>
    <trip id="veh177" type="veh_passenger" depart="595.29" departLane="best" from="E7" to="E22"/>
    <trip id="veh178" type="veh_passenger" depart="598.65" departLane="best" departSpeed="max" from="E16" to="E20"/>
    <trip id="veh179" type="veh_passenger" depart="602.01" departLane="best" departSpeed="max" from="E21" to="E15"/>
    <trip id="veh180" type="veh_passenger" depart="605.38" departLane="best" departSpeed="max" from="E9" to="E14"/>
    <trip id="veh181" type="veh_passenger" depart="608.74" departLane="best" departSpeed="max" from="E9" to="E20"/>
    <trip id="veh182" type="veh_passenger" depart="612.10" departLane="best" departSpeed="max" from="E21" to="E15"/>
    <trip id="veh183" type="veh_passenger" depart="615.47" departLane="best" departSpeed="max" from="E21" to="E8"/>
    <trip id="veh184" type="veh_passenger" depart="618.83" departLane="best" departSpeed="max" from="E21" to="E14"/>
    <trip id="veh185" type="veh_passenger" depart="622.19" departLane="best" departSpeed="max" from="E16" to="E22"/>
    <trip id="veh186" type="veh_passenger" depart="625.56" departLane="best" departSpeed="max" from="E12" to="E10"/>
    <trip id="veh187" type="veh_passenger" depart="628.92" departLane="best" departSpeed="max" from="E9" to="E10"/>
    <trip id="veh188" type="veh_passenger" depart="632.28" departLane="best" departSpeed="max" from="E23" to="E8"/>
    <trip id="veh189" type="veh_passenger" depart="635.65" departLane="best" departSpeed="max" from="E9" to="E4"/>
    <trip id="veh190" type="veh_passenger" depart="639.01" departLane="best" from="E0" to="E17"/>
    <trip id="veh191" type="veh_passenger" depart="642.37" departLane="best" from="E5" to="E8"/>
    <trip id="veh192" type="veh_passenger" depart="645.73" departLane="best" departSpeed="max" from="E11" to="E13"/>
    <trip id="veh193" type="veh_passenger" depart="649.10" departLane="best" departSpeed="max" from="E12" to="E10"/>
    <trip id="veh194" type="veh_passenger" depart="652.46" departLane="best" from="E5" to="E8"/>
    <trip id="veh195" type="veh_passenger" depart="655.82" departLane="best" departSpeed="max" from="E11" to="E8"/>
    <trip id="veh196" type="veh_passenger" depart="659.19" departLane="best" departSpeed="max" from="E23" to="E13"/>
    <trip id="veh197" type="veh_passenger" depart="662.55" departLane="best" departSpeed="max" from="E18" to="E10"/>
    <trip id="veh198" type="veh_passenger" depart="665.91" departLane="best" departSpeed="max" from="E11" to="E22"/>
    <trip id="veh199" type="veh_passenger" depart="669.28" departLane="best" departSpeed="max" from="E12" to="E10"/>
    <trip id="veh200" type="veh_passenger" depart="672.64" departLane="best" from="E3" to="E13"/>
    <trip id="veh201" type="veh_passenger" depart="676.00" departLane="best" departSpeed="max" from="E11" to="E2"/>
    <trip id="veh202" type="veh_passenger" depart="679.37" departLane="best" departSpeed="max" from="E11" to="E22"/>
    <trip id="veh203" type="veh_passenger" depart="682.73" departLane="best" departSpeed="max" from="E12" to="E1"/>
    <trip id="veh204" type="veh_passenger" depart="686.09" departLane="best" departSpeed="max" from="E19" to="E17"/>
    <trip id="veh205" type="veh_passenger" depart="689.46" departLane="best" departSpeed="max" from="E9" to="E10"/>
    <trip id="veh206" type="veh_passenger" depart="692.82" departLane="best" departSpeed="max" from="E9" to="E10"/>
    <trip id="veh207" type="veh_passenger" depart="696.18" departLane="best" departSpeed="max" from="E11" to="E20"/>
    <trip id="veh208" type="veh_passenger" depart="699.55" departLane="best" departSpeed="max" from="E16" to="E8"/>
    <trip id="veh209" type="veh_passenger" depart="702.91" departLane="best" departSpeed="max" from="E19" to="E17"/>
    <trip id="veh210" type="veh_passenger" depart="706.27" departLane="best" departSpeed="max" from="E21" to="E10"/>
    <trip id="veh211" type="veh_passenger" depart="709.64" departLane="best" departSpeed="max" from="E23" to="E6"/>
    <trip id="veh212" type="veh_passenger" depart="713.00" departLane="best" departSpeed="max" from="E23" to="E13"/>
    <trip id="veh213" type="veh_passenger" depart="716.36" departLane="best" departSpeed="max" from="E18" to="E10"/>
    <trip id="veh214" type="veh_passenger" depart="719.73" departLane="best" departSpeed="max" from="E18" to="E13"/>
    <trip id="veh215" type="veh_passenger" depart="723.09" departLane="best" departSpeed="max" from="E9" to="E10"/>
    <trip id="veh216" type="veh_passenger" depart="726.45" departLane="best" departSpeed="max" from="E11" to="E22"/>
    <trip id="veh217" type="veh_passenger" depart="729.81" departLane="best" departSpeed="max" from="E23" to="E6"/>
    <trip id="veh218" type="veh_passenger" depart="733.18" departLane="best" departSpeed="max" from="E23" to="E8"/>
    <trip id="veh219" type="veh_passenger" depart="736.54" departLane="best" departSpeed="max" from="E21" to="E15"/>
    <trip id="veh220" type="veh_passenger" depart="739.90" departLane="best" departSpeed="max" from="E21" to="E13"/>
    <trip id="veh221" type="veh_passenger" depart="743.27" departLane="best" departSpeed="max" from="E21" to="E13"/>
    <trip id="veh222" type="veh_passenger" depart="746.63" departLane="best" from="E5" to="E8"/>
    <trip id="veh223" type="veh_passenger" depart="749.99" departLane="best" departSpeed="max" from="E18" to="E10"/>
    <trip id="veh224" type="veh_passenger" depart="753.36" departLane="best" departSpeed="max" from="E23" to="E13"/>
    <trip id="veh225" type="veh_passenger" depart="756.72" departLane="best" departSpeed="max" from="E18" to="E14"/>
    <trip id="veh226" type="veh_passenger" depart="760.08" departLane="best" departSpeed="max" from="E11" to="E1"/>
    <trip id="veh227" type="veh_passenger" depart="763.45" departLane="best" departSpeed="max" from="E12" to="E20"/>
    <trip id="veh228" type="veh_passenger" depart="766.81" departLane="best" departSpeed="max" from="E18" to="E14"/>
    <trip id="veh229" type="veh_passenger" depart="770.17" departLane="best" departSpeed="max" from="E18" to="E14"/>
    <trip id="veh230" type="veh_passenger" depart="773.54" departLane="best" from="E0" to="E14"/>
    <trip id="veh231" type="veh_passenger" depart="776.90" departLane="best" departSpeed="max" from="E12" to="E10"/>
    <trip id="veh232" type="veh_passenger" depart="780.26" departLane="best" departSpeed="max" from="E11" to="E6"/>
    <trip id="veh233" type="veh_passenger" depart="783.63" departLane="best" departSpeed="max" from="E23" to="E15"/>
    <trip id="veh234" type="veh_passenger" depart="786.99" departLane="best" departSpeed="max" from="E9" to="E10"/>
    <trip id="veh235" type="veh_passenger" depart="790.35" departLane="best" from="E5" to="E13"/>
    <trip id="veh236" type="veh_passenger" depart="793.72" departLane="best" departSpeed="max" from="E18" to="E14"/>
    <trip id="veh237" type="veh_passenger" depart="797.08" departLane="best" departSpeed="max" from="E12" to="E17"/>
    <trip id="veh238" type="veh_passenger" depart="800.44" departLane="best" departSpeed="max" from="E11" to="E13"/>
    <trip id="veh239" type="veh_passenger" depart="803.81" departLane="best" departSpeed="max" from="E21" to="E13"/>
    <trip id="veh240" type="veh_passenger" depart="807.17" departLane="best" departSpeed="max" from="E21" to="E6"/>
    <trip id="veh241" type="veh_passenger" depart="810.53" departLane="best" departSpeed="max" from="E21" to="E10"/>
    <trip id="veh242" type="veh_passenger" depart="813.89" departLane="best" departSpeed="max" from="E11" to="E15"/>
    <trip id="veh243" type="veh_passenger" depart="817.26" departLane="best" departSpeed="max" from="E11" to="E6"/>