<?xml version="1.0" encoding="UTF-8"?>

<!-- generated on 2025-07-03 17:54:23.842996 by randomTrips.py v1_23_1+0000-676720d13f6
<configuration>
    <net-file value="osm.net.xml.gz"/>
    <output-trip-file value="osm.pedestrian.trips.xml"/>
    <route-file value="osm.pedestrian.rou.xml"/>
    <pedestrians value="True"/>
    <prefix value="ped"/>
    <vehicle-class value="pedestrian"/>
    <fringe-factor value="1"/>
    <max-distance value="2000.0"/>
    <insertion-density value="100.0"/>
</configuration>
-->

<routes xmlns:xsi="http://www.w3.org/2001/XMLSchema-instance" xsi:noNamespaceSchemaLocation="http://sumo.dlr.de/xsd/routes_file.xsd">
    <vType id="ped_pedestrian" vClass="pedestrian"/>
    <person id="ped0" depart="0.00" type="ped_pedestrian">
        <walk from="E22" to="E0"/>
    </person>
    <person id="ped1" depart="3.69" type="ped_pedestrian">
        <walk from="E14" to="E13"/>
    </person>
    <person id="ped2" depart="7.37" type="ped_pedestrian">
        <walk from="E3" to="E23"/>
    </person>
    <person id="ped3" depart="11.06" type="ped_pedestrian">
        <walk from="E7" to="E10"/>
    </person>
    <person id="ped4" depart="14.75" type="ped_pedestrian">
        <walk from="E18" to="E0"/>
    </person>
    <person id="ped5" depart="18.43" type="ped_pedestrian">
        <walk from="E13" to="E2"/>
    </person>
    <person id="ped6" depart="22.12" type="ped_pedestrian">
        <walk from="E0" to="E12"/>
    </person>
    <person id="ped7" depart="25.81" type="ped_pedestrian">
        <walk from="E22" to="E20"/>
    </person>
    <person id="ped8" depart="29.49" type="ped_pedestrian">
        <walk from="E13" to="E21"/>
    </person>
    <person id="ped9" depart="33.18" type="ped_pedestrian">
        <walk from="E5" to="E0"/>
    </person>
    <person id="ped10" depart="36.87" type="ped_pedestrian">
        <walk from="E5" to="E23"/>
    </person>
    <person id="ped11" depart="40.55" type="ped_pedestrian">
        <walk from="E16" to="E11"/>
    </person>
    <person id="ped12" depart="44.24" type="ped_pedestrian">
        <walk from="E8" to="E16"/>
    </person>
    <person id="ped13" depart="47.93" type="ped_pedestrian">
        <walk from="E10" to="E10"/>
    </person>
    <person id="ped14" depart="51.61" type="ped_pedestrian">
        <walk from="E6" to="E21"/>
    </person>
    <person id="ped15" depart="55.30" type="ped_pedestrian">
        <walk from="E5" to="E3"/>
    </person>
    <person id="ped16" depart="58.99" type="ped_pedestrian">
        <walk from="E2" to="E9"/>
    </person>
    <person id="ped17" depart="62.68" type="ped_pedestrian">
        <walk from="E17" to="E20"/>
    </person>
    <person id="ped18" depart="66.36" type="ped_pedestrian">
        <walk from="E5" to="E21"/>
    </person>
    <person id="ped19" depart="70.05" type="ped_pedestrian">
        <walk from="E6" to="E20"/>
    </person>
    <person id="ped20" depart="73.74" type="ped_pedestrian">
        <walk from="E23" to="E1"/>
    </person>
    <person id="ped21" depart="77.42" type="ped_pedestrian">
        <walk from="E13" to="E14"/>
    </person>
    <person id="ped22" depart="81.11" type="ped_pedestrian">
        <walk from="E1" to="E13"/>
    </person>
    <person id="ped23" depart="84.80" type="ped_pedestrian">
        <walk from="E10" to="E14"/>
    </person>
    <person id="ped24" depart="88.48" type="ped_pedestrian">
        <walk from="E22" to="E16"/>
    </person>
    <person id="ped25" depart="92.17" type="ped_pedestrian">
        <walk from="E16" to="E13"/>
    </person>
    <person id="ped26" depart="95.86" type="ped_pedestrian">
        <walk from="E14" to="E8"/>
    </person>
    <person id="ped27" depart="99.54" type="ped_pedestrian">
        <walk from="E22" to="E21"/>
    </person>
    <person id="ped28" depart="103.23" type="ped_pedestrian">
        <walk from="E12" to="E3"/>
    </person>
    <person id="ped29" depart="106.92" type="ped_pedestrian">
        <walk from="E11" to="E17"/>
    </person>
    <person id="ped30" depart="110.60" type="ped_pedestrian">
        <walk from="E9" to="E22"/>
    </person>
    <person id="ped31" depart="114.29" type="ped_pedestrian">
        <walk from="E20" to="E23"/>
    </person>
    <person id="ped32" depart="117.98" type="ped_pedestrian">
        <walk from="E6" to="E4"/>
    </person>
    <person id="ped33" depart="121.66" type="ped_pedestrian">
        <walk from="E13" to="E0"/>
    </person>
    <person id="ped34" depart="125.35" type="ped_pedestrian">
        <walk from="E15" to="E14"/>
    </person>
    <person id="ped35" depart="129.04" type="ped_pedestrian">
        <walk from="E13" to="E8"/>
    </person>
    <person id="ped36" depart="132.72" type="ped_pedestrian">
        <walk from="E7" to="E15"/>
    </person>
    <person id="ped37" depart="136.41" type="ped_pedestrian">
        <walk from="E22" to="E17"/>
    </person>
    <person id="ped38" depart="140.10" type="ped_pedestrian">
        <walk from="E7" to="E19"/>
    </person>
    <person id="ped39" depart="143.78" type="ped_pedestrian">
        <walk from="E14" to="E13"/>
    </person>
    <person id="ped40" depart="147.47" type="ped_pedestrian">
        <walk from="E20" to="E14"/>
    </person>
    <person id="ped41" depart="151.16" type="ped_pedestrian">
        <walk from="E21" to="E7"/>
    </person>
    <person id="ped42" depart="154.84" type="ped_pedestrian">
        <walk from="E17" to="E13"/>
    </person>
    <person id="ped43" depart="158.53" type="ped_pedestrian">
        <walk from="E9" to="E2"/>
    </person>
    <person id="ped44" depart="162.22" type="ped_pedestrian">
        <walk from="E10" to="E1"/>
    </person>
    <person id="ped45" depart="165.90" type="ped_pedestrian">
        <walk from="E10" to="E22"/>
    </person>
    <person id="ped46" depart="169.59" type="ped_pedestrian">
        <walk from="E5" to="E18"/>
    </person>
    <person id="ped47" depart="173.28" type="ped_pedestrian">
        <walk from="E1" to="E17"/>
    </person>
    <person id="ped48" depart="176.96" type="ped_pedestrian">
        <walk from="E9" to="E2"/>
    </person>
    <person id="ped49" depart="180.65" type="ped_pedestrian">
        <walk from="E9" to="E6"/>
    </person>
    <person id="ped50" depart="184.34" type="ped_pedestrian">
        <walk from="E0" to="E3"/>
    </person>
    <person id="ped51" depart="188.03" type="ped_pedestrian">
        <walk from="E23" to="E2"/>
    </person>
    <person id="ped52" depart="191.71" type="ped_pedestrian">
        <walk from="E14" to="E22"/>
    </person>
    <person id="ped53" depart="195.40" type="ped_pedestrian">
        <walk from="E10" to="E18"/>
    </person>
    <person id="ped54" depart="199.09" type="ped_pedestrian">
        <walk from="E18" to="E8"/>
    </person>
    <person id="ped55" depart="202.77" type="ped_pedestrian">
        <walk from="E7" to="E14"/>
    </person>
    <person id="ped56" depart="206.46" type="ped_pedestrian">
        <walk from="E2" to="E12"/>
    </person>
    <person id="ped57" depart="210.15" type="ped_pedestrian">
        <walk from="E7" to="E6"/>
    </person>
    <person id="ped58" depart="213.83" type="ped_pedestrian">
        <walk from="E15" to="E22"/>
    </person>
    <person id="ped59" depart="217.52" type="ped_pedestrian">
        <walk from="E21" to="E11"/>
    </person>
    <person id="ped60" depart="221.21" type="ped_pedestrian">
        <walk from="E4" to="E2"/>
    </person>
    <person id="ped61" depart="224.89" type="ped_pedestrian">
        <walk from="E4" to="E2"/>
    </person>
    <person id="ped62" depart="228.58" type="ped_pedestrian">
        <walk from="E0" to="E15"/>
    </person>
    <person id="ped63" depart="232.27" type="ped_pedestrian">
        <walk from="E0" to="E8"/>
    </person>
    <person id="ped64" depart="235.95" type="ped_pedestrian">
        <walk from="E7" to="E5"/>
    </person>
    <person id="ped65" depart="239.64" type="ped_pedestrian">
        <walk from="E15" to="E1"/>
    </person>
    <person id="ped66" depart="243.33" type="ped_pedestrian">
        <walk from="E7" to="E8"/>
    </person>
    <person id="ped67" depart="247.01" type="ped_pedestrian">
        <walk from="E10" to="E19"/>
    </person>
    <person id="ped68" depart="250.70" type="ped_pedestrian">
        <walk from="E1" to="E4"/>
    </person>
    <person id="ped69" depart="254.39" type="ped_pedestrian">
        <walk from="E4" to="E11"/>
    </person>
    <person id="ped70" depart="258.07" type="ped_pedestrian">
        <walk from="E19" to="E20"/>
    </person>
    <person id="ped71" depart="261.76" type="ped_pedestrian">
        <walk from="E14" to="E6"/>
    </person>
    <person id="ped72" depart="265.45" type="ped_pedestrian">
        <walk from="E18" to="E13"/>
    </person>
    <person id="ped73" depart="269.13" type="ped_pedestrian">
        <walk from="E2" to="E3"/>
    </person>
    <person id="ped74" depart="272.82" type="ped_pedestrian">
        <walk from="E12" to="E15"/>
    </person>
    <person id="ped75" depart="276.51" type="ped_pedestrian">
        <walk from="E9" to="E22"/>
    </person>
    <person id="ped76" depart="280.19" type="ped_pedestrian">
        <walk from="E18" to="E2"/>
    </person>
    <person id="ped77" depart="283.88" type="ped_pedestrian">
        <walk from="E10" to="E13"/>
    </person>
    <person id="ped78" depart="287.57" type="ped_pedestrian">
        <walk from="E16" to="E21"/>
    </person>
    <person id="ped79" depart="291.25" type="ped_pedestrian">
        <walk from="E13" to="E13"/>
    </person>
    <person id="ped80" depart="294.94" type="ped_pedestrian">
        <walk from="E1" to="E22"/>
    </person>
    <person id="ped81" depart="298.63" type="ped_pedestrian">
        <walk from="E13" to="E7"/>
    </person>
    <person id="ped82" depart="302.31" type="ped_pedestrian">
        <walk from="E6" to="E1"/>
    </person>
    <person id="ped83" depart="306.00" type="ped_pedestrian">
        <walk from="E13" to="E23"/>
    </person>
    <person id="ped84" depart="309.69" type="ped_pedestrian">
        <walk from="E13" to="E11"/>
    </person>
    <person id="ped85" depart="313.38" type="ped_pedestrian">
        <walk from="E8" to="E20"/>
    </person>
    <person id="ped86" depart="317.06" type="ped_pedestrian">
        <walk from="E19" to="E4"/>
    </person>
    <person id="ped87" depart="320.75" type="ped_pedestrian">
        <walk from="E5" to="E12"/>
    </person>
    <person id="ped88" depart="324.44" type="ped_pedestrian">
        <walk from="E10" to="E18"/>
    </person>
    <person id="ped89" depart="328.12" type="ped_pedestrian">
        <walk from="E18" to="E19"/>
    </person>
    <person id="ped90" depart="331.81" type="ped_pedestrian">
        <walk from="E3" to="E23"/>
    </person>
    <person id="ped91" depart="335.50" type="ped_pedestrian">
        <walk from="E9" to="E10"/>
    </person>
    <person id="ped92" depart="339.18" type="ped_pedestrian">
        <walk from="E17" to="E16"/>
    </person>
    <person id="ped93" depart="342.87" type="ped_pedestrian">
        <walk from="E6" to="E13"/>
    </person>
    <person id="ped94" depart="346.56" type="ped_pedestrian">
        <walk from="E12" to="E18"/>
    </person>
    <person id="ped95" depart="350.24" type="ped_pedestrian">
        <walk from="E18" to="E14"/>
    </person>
    <person id="ped96" depart="353.93" type="ped_pedestrian">
        <walk from="E13" to="E8"/>
    </person>
    <person id="ped97" depart="357.62" type="ped_pedestrian">
        <walk from="E18" to="E6"/>
    </person>
    <person id="ped98" depart="361.30" type="ped_pedestrian">
        <walk from="E20" to="E1"/>
    </person>
    <person id="ped99" depart="364.99" type="ped_pedestrian">
        <walk from="E9" to="E6"/>
    </person>
    <person id="ped100" depart="368.68" type="ped_pedestrian">
        <walk from="E9" to="E8"/>
    </person>
    <person id="ped101" depart="372.36" type="ped_pedestrian">
        <walk from="E6" to="E11"/>
    </person>
    <person id="ped102" depart="376.05" type="ped_pedestrian">
        <walk from="E19" to="E13"/>
    </person>
    <person id="ped103" depart="379.74" type="ped_pedestrian">
        <walk from="E17" to="E1"/>
    </person>
    <person id="ped104" depart="383.42" type="ped_pedestrian">
        <walk from="E17" to="E9"/>
    </person>
    <person id="ped105" depart="387.11" type="ped_pedestrian">
        <walk from="E14" to="E4"/>
    </person>
    <person id="ped106" depart="390.80" type="ped_pedestrian">
        <walk from="E18" to="E18"/>
    </person>
    <person id="ped107" depart="394.48" type="ped_pedestrian">
        <walk from="E8" to="E9"/>
    </person>
    <person id="ped108" depart="398.17" type="ped_pedestrian">
        <walk from="E20" to="E3"/>
    </person>
    <person id="ped109" depart="401.86" type="ped_pedestrian">
        <walk from="E11" to="E15"/>
    </person>
    <person id="ped110" depart="405.54" type="ped_pedestrian">
        <walk from="E9" to="E20"/>
    </person>
    <person id="ped111" depart="409.23" type="ped_pedestrian">
        <walk from="E20" to="E3"/>
    </person>
    <person id="ped112" depart="412.92" type="ped_pedestrian">
        <walk from="E1" to="E21"/>
    </person>
    <person id="ped113" depart="416.60" type="ped_pedestrian">
        <walk from="E2" to="E6"/>
    </person>
    <person id="ped114" depart="420.29" type="ped_pedestrian">
        <walk from="E11" to="E9"/>
    </person>
    <person id="ped115" depart="423.98" type="ped_pedestrian">
        <walk from="E1" to="E12"/>
    </person>
    <person id="ped116" depart="427.67" type="ped_pedestrian">
        <walk from="E21" to="E23"/>
    </person>
    <person id="ped117" depart="431.35" type="ped_pedestrian">
        <walk from="E13" to="E10"/>
    </person>
    <person id="ped118" depart="435.04" type="ped_pedestrian">
        <walk from="E7" to="E13"/>
    </person>
    <person id="ped119" depart="438.73" type="ped_pedestrian">
        <walk from="E21" to="E21"/>
    </person>
    <person id="ped120" depart="442.41" type="ped_pedestrian">
        <walk from="E18" to="E21"/>
    </person>
    <person id="ped121" depart="446.10" type="ped_pedestrian">
        <walk from="E2" to="E8"/>
    </person>
    <person id="ped122" depart="449.79" type="ped_pedestrian">
        <walk from="E12" to="E3"/>
    </person>
    <person id="ped123" depart="453.47" type="ped_pedestrian">
        <walk from="E13" to="E17"/>
    </person>
    <person id="ped124" depart="457.16" type="ped_pedestrian">
        <walk from="E23" to="E15"/>
    </person>
    <person id="ped125" depart="460.85" type="ped_pedestrian">
        <walk from="E15" to="E4"/>
    </person>
    <person id="ped126" depart="464.53" type="ped_pedestrian">
        <walk from="E1" to="E18"/>
    </person>
    <person id="ped127" depart="468.22" type="ped_pedestrian">
        <walk from="E9" to="E9"/>
    </person>
    <person id="ped128" depart="471.91" type="ped_pedestrian">
        <walk from="E1" to="E13"/>
    </person>
    <person id="ped129" depart="475.59" type="ped_pedestrian">
        <walk from="E14" to="E8"/>
    </person>
    <person id="ped130" depart="479.28" type="ped_pedestrian">
        <walk from="E7" to="E7"/>
    </person>
    <person id="ped131" depart="482.97" type="ped_pedestrian">
        <walk from="E16" to="E11"/>
    </person>
    <person id="ped132" depart="486.65" type="ped_pedestrian">
        <walk from="E6" to="E23"/>
    </person>
    <person id="ped133" depart="490.34" type="ped_pedestrian">
        <walk from="E21" to="E9"/>
    </person>
    <person id="ped134" depart="494.03" type="ped_pedestrian">
        <walk from="E22" to="E0"/>
    </person>
    <person id="ped135" depart="497.71" type="ped_pedestrian">
        <walk from="E5" to="E15"/>
    </person>
    <person id="ped136" depart="501.40" type="ped_pedestrian">
        <walk from="E22" to="E8"/>
    </person>
    <person id="ped137" depart="505.09" type="ped_pedestrian">
        <walk from="E11" to="E10"/>
    </person>
    <person id="ped138" depart="508.77" type="ped_pedestrian">
        <walk from="E10" to="E20"/>
    </person>
    <person id="ped139" depart="512.46" type="ped_pedestrian">
        <walk from="E14" to="E21"/>
    </person>
    <person id="ped140" depart="516.15" type="ped_pedestrian">
        <walk from="E3" to="E12"/>
    </person>
    <person id="ped141" depart="519.83" type="ped_pedestrian">
        <walk from="E22" to="E14"/>
    </person>
    <person id="ped142" depart="523.52" type="ped_pedestrian">
        <walk from="E19" to="E7"/>
    </person>
    <person id="ped143" depart="527.21" type="ped_pedestrian">
        <walk from="E6" to="E10"/>
    </person>
    <person id="ped144" depart="530.89" type="ped_pedestrian">
        <walk from="E18" to="E14"/>
    </person>
    <person id="ped145" depart="534.58" type="ped_pedestrian">
        <walk from="E0" to="E4"/>
    </person>
    <person id="ped146" depart="538.27" type="ped_pedestrian">
        <walk from="E22" to="E14"/>
    </person>
    <person id="ped147" depart="541.95" type="ped_pedestrian">
        <walk from="E3" to="E20"/>
    </person>
    <person id="ped148" depart="545.64" type="ped_pedestrian">
        <walk from="E18" to="E0"/>
    </person>
    <person id="ped149" depart="549.33" type="ped_pedestrian">
        <walk from="E1" to="E7"/>
    </person>
    <person id="ped150" depart="553.02" type="ped_pedestrian">
        <walk from="E7" to="E20"/>
    </person>
    <person id="ped151" depart="556.70" type="ped_pedestrian">
        <walk from="E6" to="E20"/>
    </person>
    <person id="ped152" depart="560.39" type="ped_pedestrian">
        <walk from="E11" to="E11"/>
    </person>
    <person id="ped153" depart="564.08" type="ped_pedestrian">
        <walk from="E15" to="E7"/>
    </person>
    <person id="ped154" depart="567.76" type="ped_pedestrian">
        <walk from="E5" to="E6"/>
    </person>
    <person id="ped155" depart="571.45" type="ped_pedestrian">
        <walk from="E7" to="E13"/>
    </person>
    <person id="ped156" depart="575.14" type="ped_pedestrian">
        <walk from="E13" to="E10"/>
    </person>
    <person id="ped157" depart="578.82" type="ped_pedestrian">
        <walk from="E4" to="E7"/>
    </person>
    <person id="ped158" depart="582.51" type="ped_pedestrian">
        <walk from="E17" to="E21"/>
    </person>
    <person id="ped159" depart="586.20" type="ped_pedestrian">
        <walk from="E11" to="E8"/>
    </person>
    <person id="ped160" depart="589.88" type="ped_pedestrian">
        <walk from="E6" to="E9"/>
    </person>
    <person id="ped161" depart="593.57" type="ped_pedestrian">
        <walk from="E5" to="E7"/>
    </person>
    <person id="ped162" depart="597.26" type="ped_pedestrian">
        <walk from="E0" to="E3"/>
    </person>
    <person id="ped163" depart="600.94" type="ped_pedestrian">
        <walk from="E15" to="E8"/>
    </person>
    <person id="ped164" depart="604.63" type="ped_pedestrian">
        <walk from="E5" to="E6"/>
    </person>
    <person id="ped165" depart="608.32" type="ped_pedestrian">
        <walk from="E5" to="E14"/>
    </person>
    <person id="ped166" depart="612.00" type="ped_pedestrian">
        <walk from="E4" to="E10"/>
    </person>
    <person id="ped167" depart="615.69" type="ped_pedestrian">
        <walk from="E6" to="E6"/>
    </person>
    <person id="ped168" depart="619.38" type="ped_pedestrian">
        <walk from="E13" to="E5"/>
    </person>
    <person id="ped169" depart="623.06" type="ped_pedestrian">
        <walk from="E19" to="E15"/>
    </person>
    <person id="ped170" depart="626.75" type="ped_pedestrian">
        <walk from="E5" to="E13"/>
    </person>
    <person id="ped171" depart="630.44" type="ped_pedestrian">
        <walk from="E0" to="E12"/>
    </person>
    <person id="ped172" depart="634.12" type="ped_pedestrian">
        <walk from="E15" to="E6"/>
    </person>
    <person id="ped173" depart="637.81" type="ped_pedestrian">
        <walk from="E9" to="E14"/>
    </person>
    <person id="ped174" depart="641.50" type="ped_pedestrian">
        <walk from="E22" to="E17"/>
    </person>
    <person id="ped175" depart="645.18" type="ped_pedestrian">
        <walk from="E9" to="E2"/>
    </person>
    <person id="ped176" depart="648.87" type="ped_pedestrian">
        <walk from="E8" to="E10"/>
    </person>
    <person id="ped177" depart="652.56" type="ped_pedestrian">
        <walk from="E9" to="E12"/>
    </person>
    <person id="ped178" depart="656.24" type="ped_pedestrian">
        <walk from="E9" to="E14"/>
    </person>
    <person id="ped179" depart="659.93" type="ped_pedestrian">
        <walk from="E10" to="E18"/>
    </person>
    <person id="ped180" depart="663.62" type="ped_pedestrian">
        <walk from="E3" to="E15"/>
    </person>
    <person id="ped181" depart="667.31" type="ped_pedestrian">
        <walk from="E21" to="E2"/>
    </person>
    <person id="ped182" depart="670.99" type="ped_pedestrian">
        <walk from="E17" to="E20"/>
    </person>
    <person id="ped183" depart="674.68" type="ped_pedestrian">
        <walk from="E14" to="E3"/>
    </person>
    <person id="ped184" depart="678.37" type="ped_pedestrian">
        <walk from="E0" to="E8"/>
    </person>
    <person id="ped185" depart="682.05" type="ped_pedestrian">
        <walk from="E2" to="E3"/>
    </person>
    <person id="ped186" depart="685.74" type="ped_pedestrian">
        <walk from="E3" to="E23"/>
    </person>
    <person id="ped187" depart="689.43" type="ped_pedestrian">
        <walk from="E16" to="E1"/>
    </person>
    <person id="ped188" depart="693.11" type="ped_pedestrian">
        <walk from="E22" to="E15"/>
    </person>
    <person id="ped189" depart="696.80" type="ped_pedestrian">
        <walk from="E15" to="E6"/>
    </person>
    <person id="ped190" depart="700.49" type="ped_pedestrian">
        <walk from="E3" to="E15"/>
    </person>
    <person id="ped191" depart="704.17" type="ped_pedestrian">
        <walk from="E15" to="E17"/>
    </person>
    <person id="ped192" depart="707.86" type="ped_pedestrian">
        <walk from="E17" to="E15"/>
    </person>
    <person id="ped193" depart="711.55" type="ped_pedestrian">
        <walk from="E11" to="E18"/>
    </person>
    <person id="ped194" depart="715.23" type="ped_pedestrian">
        <walk from="E8" to="E23"/>
    </person>
    <person id="ped195" depart="718.92" type="ped_pedestrian">
        <walk from="E7" to="E21"/>
    </person>
    <person id="ped196" depart="722.61" type="ped_pedestrian">
        <walk from="E15" to="E20"/>
    </person>
    <person id="ped197" depart="726.29" type="ped_pedestrian">
        <walk from="E0" to="E14"/>
    </person>
    <person id="ped198" depart="729.98" type="ped_pedestrian">
        <walk from="E18" to="E20"/>
    </person>
    <person id="ped199" depart="733.67" type="ped_pedestrian">
        <walk from="E22" to="E19"/>
    </person>
    <person id="ped200" depart="737.35" type="ped_pedestrian">
        <walk from="E18" to="E13"/>
    </person>
    <person id="ped201" depart="741.04" type="ped_pedestrian">
        <walk from="E19" to="E7"/>
    </person>
    <person id="ped202" depart="744.73" type="ped_pedestrian">
        <walk from="E5" to="E12"/>
    </person>
    <person id="ped203" depart="748.41" type="ped_pedestrian">
        <walk from="E10" to="E2"/>
    </person>
    <person id="ped204" depart="752.10" type="ped_pedestrian">
        <walk from="E22" to="E16"/>
    </person>
    <person id="ped205" depart="755.79" type="ped_pedestrian">
        <walk from="E5" to="E4"/>
    </person>
    <person id="ped206" depart="759.47" type="ped_pedestrian">
        <walk from="E23" to="E13"/>
    </person>
    <person id="ped207" depart="763.16" type="ped_pedestrian">
        <walk from="E12" to="E0"/>
    </person>
    <person id="ped208" depart="766.85" type="ped_pedestrian">
        <walk from="E13" to="E19"/>
    </person>
    <person id="ped209" depart="770.53" type="ped_pedestrian">
        <walk from="E6" to="E1"/>
    </person>
    <person id="ped210" depart="774.22" type="ped_pedestrian">
        <walk from="E17" to="E22"/>
    </person>
    <person id="ped211" depart="777.91" type="ped_pedestrian">
        <walk from="E12" to="E23"/>
    </person>
    <person id="ped212" depart="781.59" type="ped_pedestrian">
        <walk from="E19" to="E13"/>
    </person>
    <person id="ped213" depart="785.28" type="ped_pedestrian">
        <walk from="E22" to="E0"/>
    </person>
    <person id="ped214" depart="788.97" type="ped_pedestrian">
        <walk from="E4" to="E4"/>
    </person>
    <person id="ped215" depart="792.66" type="ped_pedestrian">
        <walk from="E10" to="E18"/>
    </person>
    <person id="ped216" depart="796.34" type="ped_pedestrian">
        <walk from="E12" to="E8"/>
    </person>
    <person id="ped217" depart="800.03" type="ped_pedestrian">
        <walk from="E2" to="E1"/>
    </person>
    <person id="ped218" depart="803.72" type="ped_pedestrian">
        <walk from="E13" to="E6"/>
    </person>
    <person id="ped219" depart="807.40" type="ped_pedestrian">
        <walk from="E18" to="E5"/>
    </person>
    <person id="ped220" depart="811.09" type="ped_pedestrian">
        <walk from="E23" to="E9"/>
    </person>
    <person id="ped221" depart="814.78" type="ped_pedestrian">
        <walk from="E21" to="E8"/>
    </person>
    <person id="ped222" depart="818.46" type="ped_pedestrian">
        <walk from="E7" to="E21"/>
    </person>
    <person id="ped223" depart="822.15" type="ped_pedestrian">
        <walk from="E3" to="E2"/>
    </person>
    <person id="ped224" depart="825.84" type="ped_pedestrian">
        <walk from="E5" to="E20"/>
    </person>
    <person id="ped225" depart="829.52" type="ped_pedestrian">
        <walk from="E7" to="E3"/>
    </person>
    <person id="ped226" depart="833.21" type="ped_pedestrian">
        <walk from="E19" to="E14"/>
    </person>
    <person id="ped227" depart="836.90" type="ped_pedestrian">
        <walk from="E13" to="E22"/>
    </person>
    <person id="ped228" depart="840.58" type="ped_pedestrian">
        <walk from="E4" to="E2"/>
    </person>
    <person id="ped229" depart="844.27" type="ped_pedestrian">
        <walk from="E22" to="E14"/>
    </person>
    <person id="ped230" depart="847.96" type="ped_pedestrian">
        <walk from="E1" to="E14"/>
    </person>
    <person id="ped231" depart="851.64" type="ped_pedestrian">
        <walk from="E14" to="E15"/>
    </person>
    <person id="ped232" depart="855.33" type="ped_pedestrian">
        <walk from="E2" to="E11"/>
    </person>
    <person id="ped233" depart="859.02" type="ped_pedestrian">
        <walk from="E13" to="E23"/>
    </person>
    <person id="ped234" depart="862.70" type="ped_pedestrian">
        <walk from="E23" to="E1"/>
    </person>
    <person id="ped235" depart="866.39" type="ped_pedestrian">
        <walk from="E17" to="E20"/>
    </person>
    <person id="ped236" depart="870.08" type="ped_pedestrian">
        <walk from="E17" to="E12"/>
    </person>
    <person id="ped237" depart="873.76" type="ped_pedestrian">
        <walk from="E18" to="E7"/>
    </person>
    <person id="ped238" depart="877.45" type="ped_pedestrian">
        <walk from="E21" to="E23"/>
    </person>
    <person id="ped239" depart="881.14" type="ped_pedestrian">
        <walk from="E6" to="E4"/>
    </person>
    <person id="ped240" depart="884.82" type="ped_pedestrian">
        <walk from="E17" to="E0"/>
    </person>
    <person id="ped241" depart="888.51" type="ped_pedestrian">
        <walk from="E16" to="E4"/>
    </person>
    <person id="ped242" depart="892.20" type="ped_pedestrian">
        <walk from="E6" to="E8"/>
    </person>
    <person id="ped243" depart="895.88" type="ped_pedestrian">
        <walk from="E18" to="E3"/>
    </person>
    <person id="ped244" depart="899.57" type="ped_pedestrian">
        <walk from="E20" to="E21"/>
    </person>
    <person id="ped245" depart="903.26" type="ped_pedestrian">
        <walk from="E13" to="E13"/>
    </person>
    <person id="ped246" depart="906.94" type="ped_pedestrian">
        <walk from="E18" to="E0"/>
    </person>
    <person id="ped247" depart="910.63" type="ped_pedestrian">
        <walk from="E16" to="E23"/>
    </person>
    <person id="ped248" depart="914.32" type="ped_pedestrian">
        <walk from="E17" to="E11"/>
    </person>
    <person id="ped249" depart="918.01" type="ped_pedestrian">
        <walk from="E19" to="E11"/>
    </person>
    <person id="ped250" depart="921.69" type="ped_pedestrian">
        <walk from="E21" to="E0"/>
    </person>
    <person id="ped251" depart="925.38" type="ped_pedestrian">
        <walk from="E17" to="E20"/>
    </person>
    <person id="ped252" depart="929.07" type="ped_pedestrian">
        <walk from="E0" to="E22"/>
    </person>
    <person id="ped253" depart="932.75" type="ped_pedestrian">
        <walk from="E11" to="E19"/>
    </person>
    <person id="ped254" depart="936.44" type="ped_pedestrian">
        <walk from="E1" to="E17"/>
    </person>
    <person id="ped255" depart="940.13" type="ped_pedestrian">
        <walk from="E13" to="E15"/>
    </person>
    <person id="ped256" depart="943.81" type="ped_pedestrian">
        <walk from="E4" to="E17"/>
    </person>
    <person id="ped257" depart="947.50" type="ped_pedestrian">
        <walk from="E4" to="E5"/>
    </person>
    <person id="ped258" depart="951.19" type="ped_pedestrian">
        <walk from="E14" to="E1"/>
    </person>
    <person id="ped259" depart="954.87" type="ped_pedestrian">
        <walk from="E0" to="E2"/>
    </person>
    <person id="ped260" depart="958.56" type="ped_pedestrian">
        <walk from="E9" to="E16"/>
    </person>
    <person id="ped261" depart="962.25" type="ped_pedestrian">
        <walk from="E22" to="E4"/>
    </person>