<?xml version="1.0" encoding="UTF-8"?>

<!-- generated on 2025-07-01 15:12:12.089748 by randomTrips.py v1_23_1+0000-676720d13f6
<configuration>
    <net-file value="osm.net.xml.gz"/>
    <output-trip-file value="osm.bicycle.trips.xml"/>
    <route-file value="osm.bicycle.rou.xml"/>
    <prefix value="bike"/>
    <trip-attributes value="departLane=&quot;best&quot;"/>
    <fringe-start-attributes value="departSpeed=&quot;max&quot;"/>
    <vehicle-class value="bicycle"/>
    <fringe-factor value="2"/>
    <edge-permission value="bicycle"/>
    <via-edge-types value="highway.motorway,highway.motorway_link,highway.trunk_link,highway.primary_link,highway.secondary_link,highway.tertiary_link"/>
    <max-distance value="8000.0"/>
    <remove-loops value="True"/>
    <validate value="True"/>
    <insertion-density value="60.0"/>
</configuration>
-->

<!-- generated on 2025-07-01 15:12:12 by Eclipse SUMO duarouter Version 1.23.1
<duarouterConfiguration xmlns:xsi="http://www.w3.org/2001/XMLSchema-instance" xsi:noNamespaceSchemaLocation="http://sumo.dlr.de/xsd/duarouterConfiguration.xsd">

    <input>
        <net-file value="osm.net.xml.gz"/>
        <route-files value="osm.bicycle.trips.xml"/>
    </input>

    <output>
        <output-file value="osm.bicycle.rou.xml"/>
        <alternatives-output value="NUL"/>
    </output>

    <processing>
        <remove-loops value="true"/>
    </processing>

    <time>
        <begin value="0.0"/>
        <end value="3600.0"/>
    </time>

    <report>
        <no-warnings value="true"/>
        <ignore-errors value="true"/>
        <no-step-log value="true"/>
    </report>

</duarouterConfiguration>
-->

<routes xmlns:xsi="http://www.w3.org/2001/XMLSchema-instance" xsi:noNamespaceSchemaLocation="http://sumo.dlr.de/xsd/routes_file.xsd">
    <vType id="bike_bicycle" vClass="bicycle"/>
    <vehicle id="bike0" type="bike_bicycle" depart="0.00" departLane="best" departSpeed="max">
        <route edges="E16 E5 E6 E13"/>
    </vehicle>
    <vehicle id="bike1" type="bike_bicycle" depart="6.66" departLane="best">
        <route edges="E7 E4 E10"/>
    </vehicle>
    <vehicle id="bike2" type="bike_bicycle" depart="13.31" departLane="best" departSpeed="max">
        <route edges="E12 E7 E2"/>
    </vehicle>
    <vehicle id="bike3" type="bike_bicycle" depart="19.97" departLane="best">
        <route edges="E0 E6 E13"/>
    </vehicle>
    <vehicle id="bike4" type="bike_bicycle" depart="26.63" departLane="best" departSpeed="max">
        <route edges="E23 E20"/>
    </vehicle>
    <vehicle id="bike5" type="bike_bicycle" depart="33.28" departLane="best" departSpeed="max">
        <route edges="E12 E7 E2 E20"/>
    </vehicle>
    <vehicle id="bike6" type="bike_bicycle" depart="39.94" departLane="best">
        <route edges="E5 E2 E22"/>
    </vehicle>
    <vehicle id="bike7" type="bike_bicycle" depart="46.60" departLane="best" departSpeed="max">
        <route edges="E18 E0 E4 E10"/>
    </vehicle>
    <vehicle id="bike8" type="bike_bicycle" depart="53.25" departLane="best" departSpeed="max">
        <route edges="E9 E15"/>
    </vehicle>
    <vehicle id="bike9" type="bike_bicycle" depart="59.91" departLane="best" departSpeed="max">
        <route edges="E18 E0 E2 E20"/>
    </vehicle>
    <vehicle id="bike10" type="bike_bicycle" depart="66.57" departLane="best">
        <route edges="E5 E2 E20"/>
    </vehicle>
    <vehicle id="bike11" type="bike_bicycle" depart="73.22" departLane="best" departSpeed="max">
        <route edges="E23 E3 E1"/>
    </vehicle>
    <vehicle id="bike12" type="bike_bicycle" depart="79.88" departLane="best" departSpeed="max">
        <route edges="E12 E14"/>
    </vehicle>
    <vehicle id="bike13" type="bike_bicycle" depart="86.54" departLane="best" departSpeed="max">
        <route edges="E11 E5 E6 E14"/>
    </vehicle>
    <vehicle id="bike14" type="bike_bicycle" depart="93.19" departLane="best" departSpeed="max">
        <route edges="E23 E3 E1 E15"/>
    </vehicle>
    <vehicle id="bike15" type="bike_bicycle" depart="99.85" departLane="best" departSpeed="max">
        <route edges="E18 E0 E6 E13"/>
    </vehicle>
    <vehicle id="bike16" type="bike_bicycle" depart="106.51" departLane="best" departSpeed="max">
        <route edges="E16 E5 E1 E8"/>
    </vehicle>
    <vehicle id="bike17" type="bike_bicycle" depart="113.16" departLane="best" departSpeed="max">
        <route edges="E23 E20"/>
    </vehicle>
    <vehicle id="bike18" type="bike_bicycle" depart="119.82" departLane="best" departSpeed="max">
        <route edges="E11 E5 E1 E15"/>
    </vehicle>
    <vehicle id="bike19" type="bike_bicycle" depart="126.48" departLane="best" departSpeed="max">
        <route edges="E9 E0 E2 E22"/>
    </vehicle>
    <vehicle id="bike20" type="bike_bicycle" depart="133.13" departLane="best" departSpeed="max">
        <route edges="E21 E22"/>
    </vehicle>
    <vehicle id="bike21" type="bike_bicycle" depart="139.79" departLane="best" departSpeed="max">
        <route edges="E16 E5 E6 E14"/>
    </vehicle>
    <vehicle id="bike22" type="bike_bicycle" depart="146.45" departLane="best" departSpeed="max">
        <route edges="E12 E7 E1 E8"/>
    </vehicle>
    <vehicle id="bike23" type="bike_bicycle" depart="153.10" departLane="best" departSpeed="max">
        <route edges="E23 E3 E1 E15"/>
    </vehicle>
    <vehicle id="bike24" type="bike_bicycle" depart="159.76" departLane="best">
        <route edges="E7 E4 E17"/>
    </vehicle>
    <vehicle id="bike25" type="bike_bicycle" depart="166.42" departLane="best" departSpeed="max">
        <route edges="E16 E5 E6 E13"/>
    </vehicle>
    <vehicle id="bike26" type="bike_bicycle" depart="173.07" departLane="best" departSpeed="max">
        <route edges="E21 E3 E6 E14"/>
    </vehicle>
    <vehicle id="bike27" type="bike_bicycle" depart="179.73" departLane="best" departSpeed="max">
        <route edges="E18 E0 E6 E13"/>
    </vehicle>
    <vehicle id="bike28" type="bike_bicycle" depart="186.39" departLane="best" departSpeed="max">
        <route edges="E9 E0 E2"/>
    </vehicle>
    <vehicle id="bike29" type="bike_bicycle" depart="193.04" departLane="best" departSpeed="max">
        <route edges="E11 E5 E1"/>
    </vehicle>
    <vehicle id="bike30" type="bike_bicycle" depart="199.70" departLane="best" departSpeed="max">
        <route edges="E11 E5 E2 E22"/>
    </vehicle>
    <vehicle id="bike31" type="bike_bicycle" depart="206.36" departLane="best">
        <route edges="E1 E15"/>
    </vehicle>
    <vehicle id="bike32" type="bike_bicycle" depart="213.01" departLane="best" departSpeed="max">
        <route edges="E9 E0 E2"/>
    </vehicle>
    <vehicle id="bike33" type="bike_bicycle" depart="219.67" departLane="best" departSpeed="max">
        <route edges="E9 E0 E6"/>
    </vehicle>
    <vehicle id="bike34" type="bike_bicycle" depart="226.33" departLane="best" departSpeed="max">
        <route edges="E16 E5 E2 E22"/>
    </vehicle>
    <vehicle id="bike35" type="bike_bicycle" depart="232.98" departLane="best" departSpeed="max">
        <route edges="E11 E17"/>
    </vehicle>
    <vehicle id="bike36" type="bike_bicycle" depart="239.64" departLane="best" departSpeed="max">
        <route edges="E19 E7 E1 E8"/>
    </vehicle>
    <vehicle id="bike37" type="bike_bicycle" depart="246.30" departLane="best" departSpeed="max">
        <route edges="E16 E5 E2 E22"/>
    </vehicle>
    <vehicle id="bike38" type="bike_bicycle" depart="252.95" departLane="best" departSpeed="max">
        <route edges="E21 E3 E4 E10"/>
    </vehicle>
    <vehicle id="bike39" type="bike_bicycle" depart="259.61" departLane="best">
        <route edges="E0 E6 E14"/>
    </vehicle>
    <vehicle id="bike40" type="bike_bicycle" depart="266.26" departLane="best" departSpeed="max">
        <route edges="E16 E5 E1"/>
    </vehicle>
    <vehicle id="bike41" type="bike_bicycle" depart="272.92" departLane="best">
        <route edges="E7 E1 E8"/>
    </vehicle>
    <vehicle id="bike42" type="bike_bicycle" depart="279.58" departLane="best" departSpeed="max">
        <route edges="E11 E17"/>
    </vehicle>
    <vehicle id="bike43" type="bike_bicycle" depart="286.23" departLane="best">
        <route edges="E4 E10"/>
    </vehicle>
    <vehicle id="bike44" type="bike_bicycle" depart="292.89" departLane="best" departSpeed="max">
        <route edges="E19 E7 E2 E20"/>
    </vehicle>
    <vehicle id="bike45" type="bike_bicycle" depart="299.55" departLane="best" departSpeed="max">
        <route edges="E16 E5 E6"/>
    </vehicle>
    <vehicle id="bike46" type="bike_bicycle" depart="306.20" departLane="best" departSpeed="max">
        <route edges="E19 E13"/>
    </vehicle>
    <vehicle id="bike47" type="bike_bicycle" depart="312.86" departLane="best" departSpeed="max">
        <route edges="E12 E14"/>
    </vehicle>
    <vehicle id="bike48" type="bike_bicycle" depart="319.52" departLane="best" departSpeed="max">
        <route edges="E9 E0 E2 E22"/>
    </vehicle>
    <vehicle id="bike49" type="bike_bicycle" depart="326.17" departLane="best" departSpeed="max">
        <route edges="E19 E7 E2"/>
    </vehicle>
    <vehicle id="bike50" type="bike_bicycle" depart="332.83" departLane="best" departSpeed="max">
        <route edges="E11 E5 E6 E13"/>
    </vehicle>
    <vehicle id="bike51" type="bike_bicycle" depart="339.49" departLane="best" departSpeed="max">
        <route edges="E18 E0 E2 E20"/>
    </vehicle>
    <vehicle id="bike52" type="bike_bicycle" depart="346.14" departLane="best" departSpeed="max">
        <route edges="E12 E7"/>
    </vehicle>
    <vehicle id="bike53" type="bike_bicycle" depart="352.80" departLane="best" departSpeed="max">
        <route edges="E12 E7 E2 E22"/>
    </vehicle>
    <vehicle id="bike54" type="bike_bicycle" depart="359.46" departLane="best" departSpeed="max">
        <route edges="E12 E7 E4 E10"/>
    </vehicle>
    <vehicle id="bike55" type="bike_bicycle" depart="366.11" departLane="best" departSpeed="max">
        <route edges="E9 E0 E2 E20"/>
    </vehicle>
    <vehicle id="bike56" type="bike_bicycle" depart="372.77" departLane="best" departSpeed="max">
        <route edges="E19 E7 E4"/>
    </vehicle>
    <vehicle id="bike57" type="bike_bicycle" depart="379.43" departLane="best">
        <route edges="E5 E6 E13"/>
    </vehicle>
    <vehicle id="bike58" type="bike_bicycle" depart="386.08" departLane="best" departSpeed="max">
        <route edges="E11 E17"/>
    </vehicle>
    <vehicle id="bike59" type="bike_bicycle" depart="392.74" departLane="best" departSpeed="max">
        <route edges="E19 E7 E4 E17"/>
    </vehicle>
    <vehicle id="bike60" type="bike_bicycle" depart="399.40" departLane="best" departSpeed="max">
        <route edges="E9 E0 E4 E10"/>
    </vehicle>
    <vehicle id="bike61" type="bike_bicycle" depart="406.05" departLane="best" departSpeed="max">
        <route edges="E18 E15"/>
    </vehicle>
    <vehicle id="bike62" type="bike_bicycle" depart="412.71" departLane="best">
        <route edges="E6 E13"/>
    </vehicle>
    <vehicle id="bike63" type="bike_bicycle" depart="419.37" departLane="best" departSpeed="max">
        <route edges="E12 E7 E4 E17"/>
    </vehicle>
    <vehicle id="bike64" type="bike_bicycle" depart="426.02" departLane="best" departSpeed="max">
        <route edges="E19 E14"/>
    </vehicle>
    <vehicle id="bike65" type="bike_bicycle" depart="432.68" departLane="best" departSpeed="max">
        <route edges="E12 E7 E1 E8"/>
    </vehicle>
    <vehicle id="bike66" type="bike_bicycle" depart="439.34" departLane="best" departSpeed="max">
        <route edges="E21 E3 E1"/>
    </vehicle>
    <vehicle id="bike67" type="bike_bicycle" depart="445.99" departLane="best" departSpeed="max">
        <route edges="E9 E0 E6"/>
    </vehicle>
    <vehicle id="bike68" type="bike_bicycle" depart="452.65" departLane="best" departSpeed="max">
        <route edges="E19 E13"/>
    </vehicle>
    <vehicle id="bike69" type="bike_bicycle" depart="459.31" departLane="best" departSpeed="max">
        <route edges="E18 E8"/>
    </vehicle>
    <vehicle id="bike70" type="bike_bicycle" depart="465.96" departLane="best" departSpeed="max">
        <route edges="E19 E7 E4 E17"/>
    </vehicle>
    <vehicle id="bike71" type="bike_bicycle" depart="472.62" departLane="best" departSpeed="max">
        <route edges="E21 E3"/>
    </vehicle>
    <vehicle id="bike72" type="bike_bicycle" depart="479.28" departLane="best" departSpeed="max">
        <route edges="E11 E5 E6 E14"/>
    </vehicle>
    <vehicle id="bike73" type="bike_bicycle" depart="485.93" departLane="best" departSpeed="max">
        <route edges="E9 E0 E2 E20"/>
    </vehicle>
    <vehicle id="bike74" type="bike_bicycle" depart="492.59" departLane="best" departSpeed="max">
        <route edges="E21 E3"/>
    </vehicle>
    <vehicle id="bike75" type="bike_bicycle" depart="499.25" departLane="best" departSpeed="max">
        <route edges="E11 E5 E1 E8"/>
    </vehicle>
    <vehicle id="bike76" type="bike_bicycle" depart="505.90" departLane="best" departSpeed="max">
        <route edges="E21 E22"/>
    </vehicle>
    <vehicle id="bike77" type="bike_bicycle" depart="512.56" departLane="best" departSpeed="max">
        <route edges="E12 E7 E4 E10"/>
    </vehicle>
    <vehicle id="bike78" type="bike_bicycle" depart="519.22" departLane="best" departSpeed="max">
        <route edges="E19 E7 E2 E20"/>
    </vehicle>
    <vehicle id="bike79" type="bike_bicycle" depart="525.87" departLane="best" departSpeed="max">
        <route edges="E12 E7 E1 E15"/>
    </vehicle>
    <vehicle id="bike80" type="bike_bicycle" depart="532.53" departLane="best" departSpeed="max">
        <route edges="E23 E3 E6 E14"/>
    </vehicle>
    <vehicle id="bike81" type="bike_bicycle" depart="539.19" departLane="best" departSpeed="max">
        <route edges="E16 E5 E1 E8"/>
    </vehicle>
    <vehicle id="bike82" type="bike_bicycle" depart="545.84" departLane="best">
        <route edges="E7"/>
    </vehicle>
    <vehicle id="bike83" type="bike_bicycle" depart="552.50" departLane="best" departSpeed="max">
        <route edges="E18 E0 E4 E10"/>
    </vehicle>
    <vehicle id="bike84" type="bike_bicycle" depart="559.16" departLane="best" departSpeed="max">
        <route edges="E21 E3 E1 E8"/>
    </vehicle>
    <vehicle id="bike85" type="bike_bicycle" depart="565.81" departLane="best">
        <route edges="E5 E6 E14"/>
    </vehicle>
    <vehicle id="bike86" type="bike_bicycle" depart="572.47" departLane="best" departSpeed="max">
        <route edges="E23 E3 E1 E8"/>
    </vehicle>
    <vehicle id="bike87" type="bike_bicycle" depart="579.13" departLane="best" departSpeed="max">
        <route edges="E11 E5 E2 E20"/>
    </vehicle>
    <vehicle id="bike88" type="bike_bicycle" depart="585.78" departLane="best" departSpeed="max">
        <route edges="E16 E5 E2 E20"/>
    </vehicle>
    <vehicle id="bike89" type="bike_bicycle" depart="592.44" departLane="best">
        <route edges="E3 E6 E13"/>
    </vehicle>
    <vehicle id="bike90" type="bike_bicycle" depart="599.10" departLane="best" departSpeed="max">
        <route edges="E23 E3 E6 E14"/>
    </vehicle>
    <vehicle id="bike91" type="bike_bicycle" depart="605.75" departLane="best" departSpeed="max">
        <route edges="E19 E7"/>
    </vehicle>
    <vehicle id="bike92" type="bike_bicycle" depart="612.41" departLane="best" departSpeed="max">
        <route edges="E19 E14"/>
    </vehicle>
    <vehicle id="bike93" type="bike_bicycle" depart="619.07" departLane="best">
        <route edges="E0 E4"/>
    </vehicle>
    <vehicle id="bike94" type="bike_bicycle" depart="625.72" departLane="best" departSpeed="max">
        <route edges="E23 E3 E6 E14"/>
    </vehicle>
    <vehicle id="bike95" type="bike_bicycle" depart="632.38" departLane="best">
        <route edges="E7 E2 E20"/>
    </vehicle>
    <vehicle id="bike96" type="bike_bicycle" depart="639.04" departLane="best">
        <route edges="E5 E6"/>
    </vehicle>
    <vehicle id="bike97" type="bike_bicycle" depart="645.69" departLane="best" departSpeed="max">
        <route edges="E12 E7 E4 E10"/>
    </vehicle>
    <vehicle id="bike98" type="bike_bicycle" depart="652.35" departLane="best" departSpeed="max">
        <route edges="E18 E0 E2 E20"/>
    </vehicle>
    <vehicle id="bike99" type="bike_bicycle" depart="659.01" departLane="best" departSpeed="max">
        <route edges="E11 E5 E1 E8"/>
    </vehicle>
    <vehicle id="bike100" type="bike_bicycle" depart="665.66" departLane="best" departSpeed="max">
        <route edges="E16 E5 E1 E8"/>
    </vehicle>
    <vehicle id="bike101" type="bike_bicycle" depart="672.32" departLane="best">
        <route edges="E5 E6"/>
    </vehicle>
    <vehicle id="bike102" type="bike_bicycle" depart="678.98" departLane="best">
        <route edges="E5 E6 E14"/>
    </vehicle>
    <vehicle id="bike103" type="bike_bicycle" depart="685.63" departLane="best">
        <route edges="E4 E10"/>
    </vehicle>
    <vehicle id="bike104" type="bike_bicycle" depart="692.29" departLane="best">
        <route edges="E6"/>
    </vehicle>
    <vehicle id="bike105" type="bike_bicycle" depart="698.95" departLane="best" departSpeed="max">
        <route edges="E19 E14"/>
    </vehicle>
    <vehicle id="bike106" type="bike_bicycle" depart="705.60" departLane="best">
        <route edges="E5 E6 E13"/>
    </vehicle>
    <vehicle id="bike107" type="bike_bicycle" depart="712.26" departLane="best">
        <route edges="E0 E6 E13"/>
    </vehicle>
    <vehicle id="bike108" type="bike_bicycle" depart="718.92" departLane="best" departSpeed="max">
        <route edges="E16 E5 E6"/>
    </vehicle>
    <vehicle id="bike109" type="bike_bicycle" depart="725.57" departLane="best" departSpeed="max">
        <route edges="E9 E0 E6 E14"/>
    </vehicle>
    <vehicle id="bike110" type="bike_bicycle" depart="732.23" departLane="best" departSpeed="max">
        <route edges="E23 E3 E1 E15"/>
    </vehicle>
    <vehicle id="bike111" type="bike_bicycle" depart="738.89" departLane="best" departSpeed="max">
        <route edges="E9 E0 E2"/>
    </vehicle>
    <vehicle id="bike112" type="bike_bicycle" depart="745.54" departLane="best" departSpeed="max">
        <route edges="E9 E0 E4 E10"/>
    </vehicle>
    <vehicle id="bike113" type="bike_bicycle" depart="752.20" departLane="best" departSpeed="max">
        <route edges="E9 E0 E6 E13"/>
    </vehicle>
    <vehicle id="bike114" type="bike_bicycle" depart="758.85" departLane="best" departSpeed="max">
        <route edges="E9 E0 E6 E14"/>
    </vehicle>
    <vehicle id="bike115" type="bike_bicycle" depart="765.51" departLane="best" departSpeed="max">
        <route edges="E11 E17"/>
    </vehicle>
    <vehicle id="bike116" type="bike_bicycle" depart="772.17" departLane="best">
        <route edges="E3 E6 E14"/>
    </vehicle>
    <vehicle id="bike117" type="bike_bicycle" depart="778.82" departLane="best" departSpeed="max">
        <route edges="E18 E0 E2 E20"/>
    </vehicle>
    <vehicle id="bike118" type="bike_bicycle" depart="785.48" departLane="best" departSpeed="max">
        <route edges="E23 E3 E6 E14"/>
    </vehicle>
    <vehicle id="bike119" type="bike_bicycle" depart="792.14" departLane="best" departSpeed="max">
        <route edges="E16 E5 E6"/>
    </vehicle>
    <vehicle id="bike120" type="bike_bicycle" depart="798.79" departLane="best">
        <route edges="E3 E6 E14"/>
    </vehicle>
    <vehicle id="bike121" type="bike_bicycle" depart="805.45" departLane="best" departSpeed="max">
        <route edges="E16 E5 E1 E15"/>
    </vehicle>
    <vehicle id="bike122" type="bike_bicycle" depart="812.11" departLane="best" departSpeed="max">
        <route edges="E18 E0 E6 E14"/>
    </vehicle>
    <vehicle id="bike123" type="bike_bicycle" depart="818.76" departLane="best" departSpeed="max">
        <route edges="E11 E17"/>
    </vehicle>
    <vehicle id="bike124" type="bike_bicycle" depart="825.42" departLane="best" departSpeed="max">
        <route edges="E9 E0 E2 E22"/>
    </vehicle>
    <vehicle id="bike125" type="bike_bicycle" depart="832.08" departLane="best">
        <route edges="E7 E2 E20"/>
    </vehicle>
    <vehicle id="bike126" type="bike_bicycle" depart="838.73" departLane="best" departSpeed="max">
        <route edges="E16 E5 E2 E20"/>
    </vehicle>
    <vehicle id="bike127" type="bike_bicycle" depart="845.39" departLane="best">
        <route edges="E0 E6 E14"/>
    </vehicle>
    <vehicle id="bike128" type="bike_bicycle" depart="852.05" departLane="best" departSpeed="max">
        <route edges="E19 E7 E2 E20"/>
    </vehicle>
    <vehicle id="bike129" type="bike_bicycle" depart="858.70" departLane="best" departSpeed="max">
        <route edges="E23 E3 E4 E17"/>
    </vehicle>
    <vehicle id="bike130" type="bike_bicycle" depart="865.36" departLane="best" departSpeed="max">
        <route edges="E19 E13"/>
    </vehicle>
    <vehicle id="bike131" type="bike_bicycle" depart="872.02" departLane="best" departSpeed="max">
        <route edges="E19 E7"/>
    </vehicle>
    <vehicle id="bike132" type="bike_bicycle" depart="878.67" departLane="best">
        <route edges="E5 E6 E13"/>
    </vehicle>
    <vehicle id="bike133" type="bike_bicycle" depart="885.33" departLane="best" departSpeed="max">
        <route edges="E11 E5 E2"/>
    </vehicle>
    <vehicle id="bike134" type="bike_bicycle" depart="891.99" departLane="best" departSpeed="max">
        <route edges="E23 E3 E1 E15"/>
    </vehicle>
    <vehicle id="bike135" type="bike_bicycle" depart="898.64" departLane="best" departSpeed="max">
        <route edges="E23 E3 E6 E13"/>
    </vehicle>
    <vehicle id="bike136" type="bike_bicycle" depart="905.30" departLane="best" departSpeed="max">
        <route edges="E12 E7 E4 E17"/>
    </vehicle>
    <vehicle id="bike137" type="bike_bicycle" depart="911.96" departLane="best" departSpeed="max">
        <route edges="E18 E0 E2 E22"/>
    </vehicle>
    <vehicle id="bike138" type="bike_bicycle" depart="918.61" departLane="best" departSpeed="max">
        <route edges="E12 E7 E2 E22"/>
    </vehicle>
    <vehicle id="bike139" type="bike_bicycle" depart="925.27" departLane="best" departSpeed="max">
        <route edges="E19 E13"/>
    </vehicle>
    <vehicle id="bike140" type="bike_bicycle" depart="931.93" departLane="best">
        <route edges="E4"/>
    </vehicle>
    <vehicle id="bike141" type="bike_bicycle" depart="938.58" departLane="best" departSpeed="max">
        <route edges="E11 E17"/>
    </vehicle>
    <vehicle id="bike142" type="bike_bicycle" depart="945.24" departLane="best" departSpeed="max">
        <route edges="E12 E7 E1 E8"/>
    </vehicle>
    <vehicle id="bike143" type="bike_bicycle" depart="951.90" departLane="best" departSpeed="max">
        <route edges="E23 E3 E1 E8"/>
    </vehicle>
    <vehicle id="bike144" type="bike_bicycle" depart="958.55" departLane="best" departSpeed="max">
        <route edges="E21 E3 E1 E8"/>
    </vehicle>
    <vehicle id="bike145" type="bike_bicycle" depart="965.21" departLane="best">
        <route edges="E7 E2 E20"/>
    </vehicle>
    <vehicle id="bike146" type="bike_bicycle" depart="971.87" departLane="best">
        <route edges="E5 E2 E20"/>
    </vehicle>
    <vehicle id="bike147" type="bike_bicycle" depart="978.52" departLane="best" departSpeed="max">
        <route edges="E19 E14"/>
    </vehicle>
    <vehicle id="bike148" type="bike_bicycle" depart="985.18" departLane="best" departSpeed="max">
        <route edges="E12 E7 E2 E22"/>
    </vehicle>
    <vehicle id="bike149" type="bike_bicycle" depart="991.84" departLane="best" departSpeed="max">
        <route edges="E23 E3 E6 E14"/>
    </vehicle>
    <vehicle id="bike150" type="bike_bicycle" depart="998.49" departLane="best" departSpeed="max">
        <route edges="E16 E5 E6 E14"/>
    </vehicle>
    <vehicle id="bike151" type="bike_bicycle" depart="1005.15" departLane="best" departSpeed="max">
        <route edges="E12 E7 E2 E22"/>
    </vehicle>
    <vehicle id="bike152" type="bike_bicycle" depart="1011.81" departLane="best" departSpeed="max">
        <route edges="E23 E3 E1"/>
    </vehicle>
    <vehicle id="bike153" type="bike_bicycle" depart="1018.46" departLane="best" departSpeed="max">
        <route edges="E18 E0 E2 E20"/>
    </vehicle>
    <vehicle id="bike154" type="bike_bicycle" depart="1025.12" departLane="best" departSpeed="max">
        <route edges="E18 E0 E6 E13"/>
    </vehicle>
    <vehicle id="bike155" type="bike_bicycle" depart="1031.78" departLane="best" departSpeed="max">
        <route edges="E19 E7"/>
    </vehicle>
    <vehicle id="bike156" type="bike_bicycle" depart="1038.43" departLane="best" departSpeed="max">
        <route edges="E21 E22"/>
    </vehicle>
    <vehicle id="bike157" type="bike_bicycle" depart="1045.09" departLane="best" departSpeed="max">
        <route edges="E18 E0"/>
    </vehicle>
    <vehicle id="bike158" type="bike_bicycle" depart="1051.75" departLane="best" departSpeed="max">
        <route edges="E18 E0 E4"/>
    </vehicle>
    <vehicle id="bike159" type="bike_bicycle" depart="1058.40" departLane="best" departSpeed="max">
        <route edges="E18 E0 E2 E22"/>
    </vehicle>
    <vehicle id="bike160" type="bike_bicycle" depart="1065.06" departLane="best" departSpeed="max">
        <route edges="E18 E0 E4 E10"/>
    </vehicle>
    <vehicle id="bike161" type="bike_bicycle" depart="1071.72" departLane="best" departSpeed="max">
        <route edges="E19 E7 E4 E10"/>
    </vehicle>
    <vehicle id="bike162" type="bike_bicycle" depart="1078.37" departLane="best" departSpeed="max">
        <route edges="E18 E0 E2 E20"/>
    </vehicle>
    <vehicle id="bike163" type="bike_bicycle" depart="1085.03" departLane="best">
        <route edges="E0 E2 E22"/>
    </vehicle>
    <vehicle id="bike164" type="bike_bicycle" depart="1091.69" departLane="best" departSpeed="max">
        <route edges="E11 E17"/>
    </vehicle>
    <vehicle id="bike165" type="bike_bicycle" depart="1098.34" departLane="best">
        <route edges="E1 E15"/>
    </vehicle>
    <vehicle id="bike166" type="bike_bicycle" depart="1105.00" departLane="best" departSpeed="max">
        <route edges="E12 E14"/>
    </vehicle>
    <vehicle id="bike167" type="bike_bicycle" depart="1111.66" departLane="best" departSpeed="max">
        <route edges="E16 E5 E1"/>
    </vehicle>
    <vehicle id="bike168" type="bike_bicycle" depart="1118.31" departLane="best">
        <route edges="E0 E2"/>
    </vehicle>
    <vehicle id="bike169" type="bike_bicycle" depart="1124.97" departLane="best" departSpeed="max">
        <route edges="E9 E15"/>
    </vehicle>
    <vehicle id="bike170" type="bike_bicycle" depart="1131.63" departLane="best" departSpeed="max">
        <route edges="E23 E3 E4"/>
    </vehicle>
    <vehicle id="bike171" type="bike_bicycle" depart="1138.28" departLane="best" departSpeed="max">
        <route edges="E23 E3 E4"/>
    </vehicle>
    <vehicle id="bike172" type="bike_bicycle" depart="1144.94" departLane="best" departSpeed="max">
        <route edges="E9 E0 E6 E13"/>
    </vehicle>
    <vehicle id="bike173" type="bike_bicycle" depart="1151.60" departLane="best">
        <route edges="E0 E4 E10"/>
    </vehicle>
    <vehicle id="bike174" type="bike_bicycle" depart="1158.25" departLane="best" departSpeed="max">
        <route edges="E11 E5 E2 E22"/>
    </vehicle>
    <vehicle id="bike175" type="bike_bicycle" depart="1164.91" departLane="best" departSpeed="max">
        <route edges="E21 E3 E6 E13"/>
    </vehicle>
    <vehicle id="bike176" type="bike_bicycle" depart="1171.57" departLane="best" departSpeed="max">
        <route edges="E23 E3 E4"/>
    </vehicle>
    <vehicle id="bike177" type="bike_bicycle" depart="1178.22" departLane="best" departSpeed="max">
        <route edges="E12 E7 E2 E20"/>
    </vehicle>
    <vehicle id="bike178" type="bike_bicycle" depart="1184.88" departLane="best">
        <route edges="E3 E4 E10"/>
    </vehicle>
    <vehicle id="bike179" type="bike_bicycle" depart="1191.54" departLane="best">
        <route edges="E5 E1 E8"/>
    </vehicle>
    <vehicle id="bike180" type="bike_bicycle" depart="1198.19" departLane="best" departSpeed="max">
        <route edges="E16 E5 E2 E22"/>
    </vehicle>
    <vehicle id="bike181" type="bike_bicycle" depart="1204.85" departLane="best" departSpeed="max">
        <route edges="E9 E15"/>
    </vehicle>
    <vehicle id="bike182" type="bike_bicycle" depart="1211.51" departLane="best">
        <route edges="E3 E1"/>
    </vehicle>
    <vehicle id="bike183" type="bike_bicycle" depart="1218.16" departLane="best" departSpeed="max">
        <route edges="E23 E22"/>
    </vehicle>
    <vehicle id="bike184" type="bike_bicycle" depart="1224.82" departLane="best" departSpeed="max">
        <route edges="E11 E5 E1 E8"/>
    </vehicle>
    <vehicle id="bike185" type="bike_bicycle" depart="1231.48" departLane="best" departSpeed="max">
        <route edges="E19 E7 E1 E15"/>
    </vehicle>
    <vehicle id="bike186" type="bike_bicycle" depart="1238.13" departLane="best" departSpeed="max">
        <route edges="E11 E5 E1 E8"/>
    </vehicle>
    <vehicle id="bike187" type="bike_bicycle" depart="1244.79" departLane="best" departSpeed="max">
        <route edges="E23 E3 E4 E17"/>
    </vehicle>
    <vehicle id="bike188" type="bike_bicycle" depart="1251.45" departLane="best">
        <route edges="E3 E1 E8"/>
    </vehicle>
    <vehicle id="bike189" type="bike_bicycle" depart="1258.10" departLane="best" departSpeed="max">
        <route edges="E16 E5"/>
    </vehicle>
    <vehicle id="bike190" type="bike_bicycle" depart="1264.76" departLane="best" departSpeed="max">
        <route edges="E16 E5 E6"/>
    </vehicle>
    <vehicle id="bike191" type="bike_bicycle" depart="1271.41" departLane="best" departSpeed="max">
        <route edges="E19 E7 E2 E20"/>
    </vehicle>
    <vehicle id="bike192" type="bike_bicycle" depart="1278.07" departLane="best" departSpeed="max">
        <route edges="E18 E0"/>