<?xml version="1.0" encoding="UTF-8"?>

<!-- generated on 2025-07-17 08:38:53.768866 by randomTrips.py v1_23_1+0000-676720d13f6
<configuration>
    <net-file value="osm.net.xml.gz"/>
    <output-trip-file value="osm.res_ped.trips.xml"/>
    <prefix value="res_ped"/>
    <trip-attributes value="departLane='best'"/>
    <fringe-start-attributes value="departSpeed='max'"/>
    <vehicle-class value="pedestrian"/>
    <edge-permission value="pedestrian"/>
    <via-edge-types value="footway,path,sidewalk"/>
    <remove-loops value="True"/>
    <validate value="True"/>
    <insertion-rate value="400.0"/>
</configuration>
-->

<!-- generated on 2025-07-17 08:38:53 by Eclipse SUMO duarouter Version 1.23.1
<duarouterConfiguration xmlns:xsi="http://www.w3.org/2001/XMLSchema-instance" xsi:noNamespaceSchemaLocation="http://sumo.dlr.de/xsd/duarouterConfiguration.xsd">

    <input>
        <net-file value="osm.net.xml.gz"/>
        <route-files value="osm.res_ped.trips.xml"/>
    </input>

    <output>
        <output-file value="routes.rou.xml"/>
        <alternatives-output value="NUL"/>
    </output>

    <processing>
        <remove-loops value="true"/>
    </processing>

    <time>
        <begin value="0.0"/>
        <end value="3600.0"/>
    </time>

    <report>
        <no-warnings value="true"/>
        <ignore-errors value="true"/>
        <no-step-log value="true"/>
    </report>

</duarouterConfiguration>
-->

<routes xmlns:xsi="http://www.w3.org/2001/XMLSchema-instance" xsi:noNamespaceSchemaLocation="http://sumo.dlr.de/xsd/routes_file.xsd">
    <vType id="res_ped_pedestrian" vClass="pedestrian"/>
    <vehicle id="res_ped12" type="res_ped_pedestrian" depart="108.00" departLane="best" departSpeed="max">
        <route edges="E9 E15"/>
    </vehicle>
    <vehicle id="res_ped13" type="res_ped_pedestrian" depart="117.00" departLane="best">
        <route edges="E1"/>
    </vehicle>
    <vehicle id="res_ped21" type="res_ped_pedestrian" depart="189.00" departLane="best" departSpeed="max">
        <route edges="E12 E14"/>
    </vehicle>
    <vehicle id="res_ped29" type="res_ped_pedestrian" depart="261.00" departLane="best" departSpeed="max">
        <route edges="E11 E17"/>
    </vehicle>
    <vehicle id="res_ped42" type="res_ped_pedestrian" depart="378.00" departLane="best" departSpeed="max">
        <route edges="E19 E13"/>
    </vehicle>
    <vehicle id="res_ped72" type="res_ped_pedestrian" depart="648.00" departLane="best" departSpeed="max">
        <route edges="E19 E13"/>
    </vehicle>
    <vehicle id="res_ped74" type="res_ped_pedestrian" depart="666.00" departLane="best" departSpeed="max">
        <route edges="E12 E14"/>
    </vehicle>
    <vehicle id="res_ped95" type="res_ped_pedestrian" depart="855.00" departLane="best" departSpeed="max">
        <route edges="E19 E14"/>
    </vehicle>
    <vehicle id="res_ped119" type="res_ped_pedestrian" depart="1071.00" departLane="best" departSpeed="max">
        <route edges="E23 E22"/>
    </vehicle>
    <vehicle id="res_ped130" type="res_ped_pedestrian" depart="1170.00" departLane="best">
        <route edges="E7"/>
    </vehicle>
    <vehicle id="res_ped144" type="res_ped_pedestrian" depart="1296.00" departLane="best" departSpeed="max">
        <route edges="E19 E14"/>
    </vehicle>
    <vehicle id="res_ped167" type="res_ped_pedestrian" depart="1503.00" departLane="best">
        <route edges="E6"/>
    </vehicle>
    <vehicle id="res_ped181" type="res_ped_pedestrian" depart="1629.00" departLane="best" departSpeed="max">
        <route edges="E23 E20"/>
    </vehicle>
    <vehicle id="res_ped191" type="res_ped_pedestrian" depart="1719.00" departLane="best" departSpeed="max">
        <route edges="E16 E17"/>
    </vehicle>
    <vehicle id="res_ped192" type="res_ped_pedestrian" depart="1728.00" departLane="best" departSpeed="max">
        <route edges="E19 E14"/>
    </vehicle>
    <vehicle id="res_ped193" type="res_ped_pedestrian" depart="1737.00" departLane="best" departSpeed="max">
        <route edges="E11 E17"/>
    </vehicle>
    <vehicle id="res_ped214" type="res_ped_pedestrian" depart="1926.00" departLane="best">
        <route edges="E5"/>
    </vehicle>
    <vehicle id="res_ped236" type="res_ped_pedestrian" depart="2124.00" departLane="best" departSpeed="max">
        <route edges="E19 E13"/>
    </vehicle>
    <vehicle id="res_ped244" type="res_ped_pedestrian" depart="2196.00" departLane="best" departSpeed="max">
        <route edges="E21 E22"/>
    </vehicle>
    <vehicle id="res_ped260" type="res_ped_pedestrian" depart="2340.00" departLane="best" departSpeed="max">
        <route edges="E9 E15"/>
    </vehicle>
    <vehicle id="res_ped282" type="res_ped_pedestrian" depart="2538.00" departLane="best">
        <route edges="E6"/>
    </vehicle>
    <vehicle id="res_ped324" type="res_ped_pedestrian" depart="2916.00" departLane="best">
        <route edges="E2"/>
    </vehicle>
    <vehicle id="res_ped337" type="res_ped_pedestrian" depart="3033.00" departLane="best" departSpeed="max">
        <route edges="E23 E22"/>
    </vehicle>
    <vehicle id="res_ped355" type="res_ped_pedestrian" depart="3195.00" departLane="best">
        <route edges="E4"/>
    </vehicle>
    <vehicle id="res_ped369" type="res_ped_pedestrian" depart="3321.00" departLane="best" departSpeed="max">
        <route edges="E18 E15"/>
    </vehicle>
    <vehicle id="res_ped375" type="res_ped_pedestrian" depart="3375.00" departLane="best" departSpeed="max">
        <route edges="E18 E8"/>
    </vehicle>
</routes>
