<routes>

<!-- generated on 2025-08-15 22:04:10.503368 by randomTrips.py UNKNOWN
<configuration>
    <net-file value="osm.net.xml.gz"/>
    <weights-prefix value="random_edge_priority_interval_0"/>
    <output-trip-file value="osm.res_bike.interval_0.trips.xml"/>
    <route-file value="osm.res_bike.interval_0.rou.xml"/>
    <prefix value="res_bike_int0"/>
    <trip-attributes value="departLane=&quot;best&quot;"/>
    <fringe-start-attributes value="departSpeed=&quot;max&quot;"/>
    <vehicle-class value="bicycle"/>
    <vclass value="bicycle"/>
    <remove-loops value="True"/>
    <validate value="True"/>
    <verbose value="True"/>
    <insertion-rate value="37.0"/>
</configuration>
-->

<!-- generated on 2025-08-15 22:04:10 by Eclipse SUMO duarouter Version 1.22.0
<duarouterConfiguration xmlns:xsi="http://www.w3.org/2001/XMLSchema-instance" xsi:noNamespaceSchemaLocation="http://sumo.dlr.de/xsd/duarouterConfiguration.xsd">

    <input>
        <net-file value="osm.net.xml.gz"/>
        <route-files value="osm.res_bike.interval_0.trips.xml"/>
    </input>

    <output>
        <output-file value="osm.res_bike.interval_0.trips.xml.tmp"/>
        <alternatives-output value="NUL"/>
        <write-trips value="true"/>
    </output>

    <processing>
        <remove-loops value="true"/>
    </processing>

    <time>
        <begin value="0.0"/>
        <end value="3600.0"/>
    </time>

    <report>
        <verbose value="true"/>
        <ignore-errors value="true"/>
        <no-step-log value="true"/>
    </report>

</duarouterConfiguration>
-->

    <vType id="res_bike_int0_bicycle" vClass="bicycle"/>
    <trip id="res_bike_int00" type="res_bike_int0_bicycle" depart="0.00" departLane="best" departSpeed="max" from="E22" to="E18.410"/>
    <trip id="res_bike_int01" type="res_bike_int0_bicycle" depart="97.30" departLane="best" departSpeed="max" from="E18" to="E18.410"/>
    <trip id="res_bike_int02" type="res_bike_int0_bicycle" depart="194.59" departLane="best" departSpeed="max" from="E22" to="E30.558"/>
    <trip id="res_bike_int03" type="res_bike_int0_bicycle" depart="291.89" departLane="best" departSpeed="max" from="E22" to="E18.410"/>
    <trip id="res_bike_int04" type="res_bike_int0_bicycle" depart="389.19" departLane="best" departSpeed="max" from="E22" to="E18.410"/>
    <trip id="res_bike_int06" type="res_bike_int0_bicycle" depart="583.78" departLane="best" departSpeed="max" from="E18" to="E18.410"/>
    <trip id="res_bike_int07" type="res_bike_int0_bicycle" depart="681.08" departLane="best" departSpeed="max" from="E22" to="E30.558"/>
    <trip id="res_bike_int09" type="res_bike_int0_bicycle" depart="875.68" departLane="best" departSpeed="max" from="E22" to="E18.410"/>
    <trip id="res_bike_int010" type="res_bike_int0_bicycle" depart="972.97" departLane="best" departSpeed="max" from="E22" to="E30.558"/>
    <trip id="res_bike_int011" type="res_bike_int0_bicycle" depart="1070.27" departLane="best" departSpeed="max" from="E22" to="E18.410"/>
    <trip id="res_bike_int012" type="res_bike_int0_bicycle" depart="1167.57" departLane="best" departSpeed="max" from="E22" to="E22.488"/>
    <trip id="res_bike_int013" type="res_bike_int0_bicycle" depart="1264.86" departLane="best" departSpeed="max" from="E18" to="E18.410"/>
    <trip id="res_bike_int014" type="res_bike_int0_bicycle" depart="1362.16" departLane="best" departSpeed="max" from="E22" to="E30.558"/>
    <trip id="res_bike_int015" type="res_bike_int0_bicycle" depart="1459.46" departLane="best" departSpeed="max" from="E22" to="E30.558"/>
    <trip id="res_bike_int017" type="res_bike_int0_bicycle" depart="1654.05" departLane="best" departSpeed="max" from="E22" to="E30.558"/>
    <trip id="res_bike_int018" type="res_bike_int0_bicycle" depart="1751.35" departLane="best" departSpeed="max" from="E22" to="E30.558"/>
    <trip id="res_bike_int019" type="res_bike_int0_bicycle" depart="1848.65" departLane="best" departSpeed="max" from="E22" to="E30.558"/>
    <trip id="res_bike_int020" type="res_bike_int0_bicycle" depart="1945.95" departLane="best" departSpeed="max" from="E22" to="E18.410"/>
    <trip id="res_bike_int021" type="res_bike_int0_bicycle" depart="2043.24" departLane="best" departSpeed="max" from="E18" to="E22.488"/>
    <trip id="res_bike_int022" type="res_bike_int0_bicycle" depart="2140.54" departLane="best" departSpeed="max" from="E18" to="E18.410"/>
    <trip id="res_bike_int023" type="res_bike_int0_bicycle" depart="2237.84" departLane="best" departSpeed="max" from="E18" to="E22.488"/>
    <trip id="res_bike_int024" type="res_bike_int0_bicycle" depart="2335.14" departLane="best" departSpeed="max" from="E22" to="E22.488"/>
    <trip id="res_bike_int025" type="res_bike_int0_bicycle" depart="2432.43" departLane="best" departSpeed="max" from="E22" to="E18.410"/>
    <trip id="res_bike_int026" type="res_bike_int0_bicycle" depart="2529.73" departLane="best" departSpeed="max" from="E18" to="E31.622"/>
    <trip id="res_bike_int027" type="res_bike_int0_bicycle" depart="2627.03" departLane="best" departSpeed="max" from="E22" to="E30.558"/>
    <trip id="res_bike_int029" type="res_bike_int0_bicycle" depart="2821.62" departLane="best" departSpeed="max" from="E18" to="E22.488"/>
    <trip id="res_bike_int030" type="res_bike_int0_bicycle" depart="2918.92" departLane="best" departSpeed="max" from="E22" to="E30.558"/>
    <trip id="res_bike_int031" type="res_bike_int0_bicycle" depart="3016.22" departLane="best" departSpeed="max" from="E22" to="E30.558"/>
    <trip id="res_bike_int033" type="res_bike_int0_bicycle" depart="3210.81" departLane="best" departSpeed="max" from="E18" to="E18.410"/>
    <trip id="res_bike_int034" type="res_bike_int0_bicycle" depart="3308.11" departLane="best" departSpeed="max" from="E22" to="E22.488"/>
    <trip id="res_bike_int035" type="res_bike_int0_bicycle" depart="3405.41" departLane="best" departSpeed="max" from="E18" to="E31.622"/>
    <trip id="res_bike_int036" type="res_bike_int0_bicycle" depart="3502.70" departLane="best" departSpeed="max" from="E22" to="E22.488"/>

<!-- generated on 2025-08-15 22:04:11.207007 by randomTrips.py UNKNOWN
<configuration>
    <net-file value="osm.net.xml.gz"/>
    <weights-prefix value="random_edge_priority_interval_1"/>
    <output-trip-file value="osm.res_bike.interval_1.trips.xml"/>
    <route-file value="osm.res_bike.interval_1.rou.xml"/>
    <prefix value="res_bike_int1"/>
    <trip-attributes value="departLane=&quot;best&quot;"/>
    <fringe-start-attributes value="departSpeed=&quot;max&quot;"/>
    <vehicle-class value="bicycle"/>
    <vclass value="bicycle"/>
    <remove-loops value="True"/>
    <validate value="True"/>
    <verbose value="True"/>
    <begin value="3601.0"/>
    <end value="7200.0"/>
    <insertion-rate value="76.02111697693803"/>
</configuration>
-->

<!-- generated on 2025-08-15 22:04:11 by Eclipse SUMO duarouter Version 1.22.0
<duarouterConfiguration xmlns:xsi="http://www.w3.org/2001/XMLSchema-instance" xsi:noNamespaceSchemaLocation="http://sumo.dlr.de/xsd/duarouterConfiguration.xsd">

    <input>
        <net-file value="osm.net.xml.gz"/>
        <route-files value="osm.res_bike.interval_1.trips.xml"/>
    </input>

    <output>
        <output-file value="osm.res_bike.interval_1.trips.xml.tmp"/>
        <alternatives-output value="NUL"/>
        <write-trips value="true"/>
    </output>

    <processing>
        <remove-loops value="true"/>
    </processing>

    <time>
        <begin value="3601.0"/>
        <end value="7200.0"/>
    </time>

    <report>
        <verbose value="true"/>
        <ignore-errors value="true"/>
        <no-step-log value="true"/>
    </report>

</duarouterConfiguration>
-->

    <vType id="res_bike_int1_bicycle" vClass="bicycle"/>
    <trip id="res_bike_int10" type="res_bike_int1_bicycle" depart="3601.00" departLane="best" departSpeed="max" from="E31" to="E18.410"/>
    <trip id="res_bike_int11" type="res_bike_int1_bicycle" depart="3648.36" departLane="best" departSpeed="max" from="E18" to="E18.410"/>
    <trip id="res_bike_int12" type="res_bike_int1_bicycle" depart="3695.71" departLane="best" departSpeed="max" from="E31" to="E30.558"/>
    <trip id="res_bike_int13" type="res_bike_int1_bicycle" depart="3743.07" departLane="best" departSpeed="max" from="E31" to="E18.410"/>
    <trip id="res_bike_int14" type="res_bike_int1_bicycle" depart="3790.42" departLane="best" departSpeed="max" from="E18" to="E18.410"/>
    <trip id="res_bike_int16" type="res_bike_int1_bicycle" depart="3885.13" departLane="best" departSpeed="max" from="E18" to="E18.410"/>
    <trip id="res_bike_int17" type="res_bike_int1_bicycle" depart="3932.49" departLane="best" departSpeed="max" from="E31" to="E30.558"/>
    <trip id="res_bike_int19" type="res_bike_int1_bicycle" depart="4027.20" departLane="best" departSpeed="max" from="E31" to="E18.410"/>
    <trip id="res_bike_int110" type="res_bike_int1_bicycle" depart="4074.55" departLane="best" departSpeed="max" from="E31" to="E30.558"/>
    <trip id="res_bike_int111" type="res_bike_int1_bicycle" depart="4121.91" departLane="best" departSpeed="max" from="E18" to="E18.410"/>
    <trip id="res_bike_int113" type="res_bike_int1_bicycle" depart="4216.62" departLane="best" departSpeed="max" from="E18" to="E18.410"/>
    <trip id="res_bike_int114" type="res_bike_int1_bicycle" depart="4263.97" departLane="best" departSpeed="max" from="E31" to="E30.558"/>
    <trip id="res_bike_int115" type="res_bike_int1_bicycle" depart="4311.33" departLane="best" departSpeed="max" from="E31" to="E30.558"/>
    <trip id="res_bike_int116" type="res_bike_int1_bicycle" depart="4358.68" departLane="best" departSpeed="max" from="E31" to="E31.622"/>
    <trip id="res_bike_int118" type="res_bike_int1_bicycle" depart="4453.39" departLane="best" departSpeed="max" from="E31" to="E30.558"/>
    <trip id="res_bike_int119" type="res_bike_int1_bicycle" depart="4500.75" departLane="best" departSpeed="max" from="E31" to="E30.558"/>
    <trip id="res_bike_int120" type="res_bike_int1_bicycle" depart="4548.11" departLane="best" departSpeed="max" from="E31" to="E18.410"/>
    <trip id="res_bike_int121" type="res_bike_int1_bicycle" depart="4595.46" departLane="best" departSpeed="max" from="E18" to="E22.488"/>
    <trip id="res_bike_int122" type="res_bike_int1_bicycle" depart="4642.82" departLane="best" departSpeed="max" from="E18" to="E18.410"/>
    <trip id="res_bike_int123" type="res_bike_int1_bicycle" depart="4690.17" departLane="best" departSpeed="max" from="E18" to="E22.488"/>
    <trip id="res_bike_int125" type="res_bike_int1_bicycle" depart="4784.88" departLane="best" departSpeed="max" from="E18" to="E18.410"/>
    <trip id="res_bike_int126" type="res_bike_int1_bicycle" depart="4832.24" departLane="best" departSpeed="max" from="E18" to="E31.622"/>
    <trip id="res_bike_int127" type="res_bike_int1_bicycle" depart="4879.59" departLane="best" departSpeed="max" from="E31" to="E30.558"/>
    <trip id="res_bike_int129" type="res_bike_int1_bicycle" depart="4974.30" departLane="best" departSpeed="max" from="E18" to="E22.488"/>
    <trip id="res_bike_int130" type="res_bike_int1_bicycle" depart="5021.66" departLane="best" departSpeed="max" from="E31" to="E30.558"/>
    <trip id="res_bike_int131" type="res_bike_int1_bicycle" depart="5069.01" departLane="best" departSpeed="max" from="E31" to="E30.558"/>
    <trip id="res_bike_int132" type="res_bike_int1_bicycle" depart="5116.37" departLane="best" departSpeed="max" from="E31" to="E31.622"/>
    <trip id="res_bike_int133" type="res_bike_int1_bicycle" depart="5163.72" departLane="best" departSpeed="max" from="E18" to="E18.410"/>
    <trip id="res_bike_int134" type="res_bike_int1_bicycle" depart="5211.08" departLane="best" departSpeed="max" from="E18" to="E22.488"/>
    <trip id="res_bike_int135" type="res_bike_int1_bicycle" depart="5258.43" departLane="best" departSpeed="max" from="E18" to="E31.622"/>
    <trip id="res_bike_int139" type="res_bike_int1_bicycle" depart="5447.86" departLane="best" departSpeed="max" from="E18" to="E18.410"/>
    <trip id="res_bike_int141" type="res_bike_int1_bicycle" depart="5542.57" departLane="best" departSpeed="max" from="E31" to="E31.622"/>
    <trip id="res_bike_int142" type="res_bike_int1_bicycle" depart="5589.92" departLane="best" departSpeed="max" from="E18" to="E18.410"/>
    <trip id="res_bike_int143" type="res_bike_int1_bicycle" depart="5637.28" departLane="best" departSpeed="max" from="E31" to="E30.558"/>
    <trip id="res_bike_int144" type="res_bike_int1_bicycle" depart="5684.63" departLane="best" departSpeed="max" from="E18" to="E18.410"/>
    <trip id="res_bike_int147" type="res_bike_int1_bicycle" depart="5826.70" departLane="best" departSpeed="max" from="E18" to="E22.488"/>
    <trip id="res_bike_int148" type="res_bike_int1_bicycle" depart="5874.05" departLane="best" departSpeed="max" from="E31" to="E30.558"/>
    <trip id="res_bike_int149" type="res_bike_int1_bicycle" depart="5921.41" departLane="best" departSpeed="max" from="E31" to="E31.622"/>
    <trip id="res_bike_int151" type="res_bike_int1_bicycle" depart="6016.12" departLane="best" departSpeed="max" from="E31" to="E30.558"/>
    <trip id="res_bike_int153" type="res_bike_int1_bicycle" depart="6110.83" departLane="best" departSpeed="max" from="E18" to="E22.488"/>
    <trip id="res_bike_int154" type="res_bike_int1_bicycle" depart="6158.18" departLane="best" departSpeed="max" from="E18" to="E31.622"/>
    <trip id="res_bike_int156" type="res_bike_int1_bicycle" depart="6252.89" departLane="best" departSpeed="max" from="E18" to="E18.410"/>
    <trip id="res_bike_int157" type="res_bike_int1_bicycle" depart="6300.25" departLane="best" departSpeed="max" from="E31" to="E31.622"/>
    <trip id="res_bike_int159" type="res_bike_int1_bicycle" depart="6394.96" departLane="best" departSpeed="max" from="E31" to="E18.410"/>
    <trip id="res_bike_int160" type="res_bike_int1_bicycle" depart="6442.32" departLane="best" departSpeed="max" from="E31" to="E30.558"/>
    <trip id="res_bike_int161" type="res_bike_int1_bicycle" depart="6489.67" departLane="best" departSpeed="max" from="E31" to="E30.558"/>
    <trip id="res_bike_int162" type="res_bike_int1_bicycle" depart="6537.03" departLane="best" departSpeed="max" from="E18" to="E22.488"/>
    <trip id="res_bike_int163" type="res_bike_int1_bicycle" depart="6584.38" departLane="best" departSpeed="max" from="E18" to="E31.622"/>
    <trip id="res_bike_int164" type="res_bike_int1_bicycle" depart="6631.74" departLane="best" departSpeed="max" from="E31" to="E31.622"/>
    <trip id="res_bike_int165" type="res_bike_int1_bicycle" depart="6679.09" departLane="best" departSpeed="max" from="E18" to="E18.410"/>
    <trip id="res_bike_int166" type="res_bike_int1_bicycle" depart="6726.45" departLane="best" departSpeed="max" from="E31" to="E31.622"/>
    <trip id="res_bike_int167" type="res_bike_int1_bicycle" depart="6773.80" departLane="best" departSpeed="max" from="E18" to="E22.488"/>
    <trip id="res_bike_int168" type="res_bike_int1_bicycle" depart="6821.16" departLane="best" departSpeed="max" from="E18" to="E31.622"/>
    <trip id="res_bike_int169" type="res_bike_int1_bicycle" depart="6868.51" departLane="best" departSpeed="max" from="E31" to="E18.410"/>
    <trip id="res_bike_int171" type="res_bike_int1_bicycle" depart="6963.22" departLane="best" departSpeed="max" from="E18" to="E31.622"/>
    <trip id="res_bike_int172" type="res_bike_int1_bicycle" depart="7010.58" departLane="best" departSpeed="max" from="E18" to="E18.410"/>
    <trip id="res_bike_int173" type="res_bike_int1_bicycle" depart="7057.93" departLane="best" departSpeed="max" from="E31" to="E30.558"/>
    <trip id="res_bike_int174" type="res_bike_int1_bicycle" depart="7105.29" departLane="best" departSpeed="max" from="E18" to="E22.488"/>
    <trip id="res_bike_int175" type="res_bike_int1_bicycle" depart="7152.64" departLane="best" departSpeed="max" from="E31" to="E30.558"/>
</routes>
