<?xml version="1.0" encoding="UTF-8"?>

<!-- generated on 2025-08-02 13:30:12.262213 by randomTrips.py UNKNOWN
<configuration>
    <net-file value="osm.net.xml.gz"/>
    <weights-prefix value="random_edge_priority_interval_9"/>
    <output-trip-file value="osm.res_veh.interval_9.trips.xml"/>
    <prefix value="res_veh_int9"/>
    <trip-attributes value="departLane='best'"/>
    <fringe-start-attributes value="departSpeed='max'"/>
    <vehicle-class value="passenger"/>
    <remove-loops value="True"/>
    <validate value="True"/>
    <begin value="3249.0"/>
    <insertion-rate value="1282.051282051282"/>
</configuration>
-->

<!-- generated on 2025-08-02 13:30:12 by Eclipse SUMO duarouter Version 1.22.0
<duarouterConfiguration xmlns:xsi="http://www.w3.org/2001/XMLSchema-instance" xsi:noNamespaceSchemaLocation="http://sumo.dlr.de/xsd/duarouterConfiguration.xsd">

    <input>
        <net-file value="osm.net.xml.gz"/>
        <route-files value="osm.res_veh.interval_9.trips.xml"/>
    </input>

    <output>
        <output-file value="osm.res_veh.interval_9.trips.xml.tmp"/>
        <alternatives-output value="NUL"/>
        <write-trips value="true"/>
    </output>

    <processing>
        <remove-loops value="true"/>
    </processing>

    <time>
        <begin value="3249.0"/>
        <end value="3600.0"/>
    </time>

    <report>
        <no-warnings value="true"/>
        <ignore-errors value="true"/>
        <no-step-log value="true"/>
    </report>

</duarouterConfiguration>
-->

<routes xmlns:xsi="http://www.w3.org/2001/XMLSchema-instance" xsi:noNamespaceSchemaLocation="http://sumo.dlr.de/xsd/routes_file.xsd">
    <vType id="res_veh_int9_passenger" vClass="passenger"/>
    <trip id="res_veh_int91" type="res_veh_int9_passenger" depart="3251.81" departLane="best" departSpeed="max" from="E22" to="E18.410"/>
    <trip id="res_veh_int92" type="res_veh_int9_passenger" depart="3254.62" departLane="best" departSpeed="max" from="E31" to="E30.558"/>
    <trip id="res_veh_int93" type="res_veh_int9_passenger" depart="3257.42" departLane="best" departSpeed="max" from="E31" to="E18.410"/>
    <trip id="res_veh_int94" type="res_veh_int9_passenger" depart="3260.23" departLane="best" departSpeed="max" from="E22" to="E18.410"/>
    <trip id="res_veh_int95" type="res_veh_int9_passenger" depart="3263.04" departLane="best" departSpeed="max" from="E22" to="E30.558"/>
    <trip id="res_veh_int96" type="res_veh_int9_passenger" depart="3265.85" departLane="best" departSpeed="max" from="E18" to="E18.410"/>
    <trip id="res_veh_int97" type="res_veh_int9_passenger" depart="3268.66" departLane="best" departSpeed="max" from="E30" to="E30.558"/>
    <trip id="res_veh_int98" type="res_veh_int9_passenger" depart="3271.46" departLane="best" departSpeed="max" from="E22" to="E30.558"/>
    <trip id="res_veh_int99" type="res_veh_int9_passenger" depart="3274.27" departLane="best" departSpeed="max" from="E31" to="E18.410"/>
    <trip id="res_veh_int910" type="res_veh_int9_passenger" depart="3277.08" departLane="best" departSpeed="max" from="E31" to="E30.558"/>
    <trip id="res_veh_int911" type="res_veh_int9_passenger" depart="3279.89" departLane="best" departSpeed="max" from="E22" to="E18.410"/>
    <trip id="res_veh_int913" type="res_veh_int9_passenger" depart="3285.50" departLane="best" departSpeed="max" from="E18" to="E18.410"/>
    <trip id="res_veh_int914" type="res_veh_int9_passenger" depart="3288.31" departLane="best" departSpeed="max" from="E31" to="E30.558"/>
    <trip id="res_veh_int915" type="res_veh_int9_passenger" depart="3291.12" departLane="best" departSpeed="max" from="E31" to="E30.558"/>
    <trip id="res_veh_int916" type="res_veh_int9_passenger" depart="3293.93" departLane="best" departSpeed="max" from="E30" to="E31.622"/>
    <trip id="res_veh_int917" type="res_veh_int9_passenger" depart="3296.74" departLane="best" departSpeed="max" from="E22" to="E30.558"/>
    <trip id="res_veh_int918" type="res_veh_int9_passenger" depart="3299.54" departLane="best" departSpeed="max" from="E31" to="E30.558"/>
    <trip id="res_veh_int919" type="res_veh_int9_passenger" depart="3302.35" departLane="best" departSpeed="max" from="E31" to="E30.558"/>
    <trip id="res_veh_int920" type="res_veh_int9_passenger" depart="3305.16" departLane="best" departSpeed="max" from="E31" to="E18.410"/>
    <trip id="res_veh_int921" type="res_veh_int9_passenger" depart="3307.97" departLane="best" departSpeed="max" from="E22" to="E22.488"/>
    <trip id="res_veh_int922" type="res_veh_int9_passenger" depart="3310.78" departLane="best" departSpeed="max" from="E18" to="E18.410"/>
    <trip id="res_veh_int923" type="res_veh_int9_passenger" depart="3313.58" departLane="best" departSpeed="max" from="E18" to="E22.488"/>
    <trip id="res_veh_int924" type="res_veh_int9_passenger" depart="3316.39" departLane="best" departSpeed="max" from="E30" to="E22.488"/>
    <trip id="res_veh_int925" type="res_veh_int9_passenger" depart="3319.20" departLane="best" departSpeed="max" from="E22" to="E18.410"/>
    <trip id="res_veh_int927" type="res_veh_int9_passenger" depart="3324.82" departLane="best" departSpeed="max" from="E30" to="E30.558"/>
    <trip id="res_veh_int928" type="res_veh_int9_passenger" depart="3327.62" departLane="best" departSpeed="max" from="E22" to="E30.558"/>
    <trip id="res_veh_int929" type="res_veh_int9_passenger" depart="3330.43" departLane="best" departSpeed="max" from="E22" to="E22.488"/>
    <trip id="res_veh_int930" type="res_veh_int9_passenger" depart="3333.24" departLane="best" departSpeed="max" from="E31" to="E30.558"/>
    <trip id="res_veh_int931" type="res_veh_int9_passenger" depart="3336.05" departLane="best" departSpeed="max" from="E30" to="E30.558"/>
    <trip id="res_veh_int932" type="res_veh_int9_passenger" depart="3338.86" departLane="best" departSpeed="max" from="E31" to="E31.622"/>
    <trip id="res_veh_int933" type="res_veh_int9_passenger" depart="3341.66" departLane="best" departSpeed="max" from="E22" to="E18.410"/>
    <trip id="res_veh_int934" type="res_veh_int9_passenger" depart="3344.47" departLane="best" departSpeed="max" from="E22" to="E22.488"/>
    <trip id="res_veh_int939" type="res_veh_int9_passenger" depart="3358.51" departLane="best" departSpeed="max" from="E22" to="E18.410"/>
    <trip id="res_veh_int940" type="res_veh_int9_passenger" depart="3361.32" departLane="best" departSpeed="max" from="E30" to="E22.488"/>
    <trip id="res_veh_int941" type="res_veh_int9_passenger" depart="3364.13" departLane="best" departSpeed="max" from="E30" to="E31.622"/>
    <trip id="res_veh_int942" type="res_veh_int9_passenger" depart="3366.94" departLane="best" departSpeed="max" from="E22" to="E18.410"/>
    <trip id="res_veh_int943" type="res_veh_int9_passenger" depart="3369.74" departLane="best" departSpeed="max" from="E31" to="E30.558"/>
    <trip id="res_veh_int944" type="res_veh_int9_passenger" depart="3372.55" departLane="best" departSpeed="max" from="E18" to="E18.410"/>
    <trip id="res_veh_int947" type="res_veh_int9_passenger" depart="3380.98" departLane="best" departSpeed="max" from="E18" to="E22.488"/>
    <trip id="res_veh_int948" type="res_veh_int9_passenger" depart="3383.78" departLane="best" departSpeed="max" from="E31" to="E30.558"/>
    <trip id="res_veh_int949" type="res_veh_int9_passenger" depart="3386.59" departLane="best" departSpeed="max" from="E31" to="E31.622"/>
    <trip id="res_veh_int951" type="res_veh_int9_passenger" depart="3392.21" departLane="best" departSpeed="max" from="E31" to="E30.558"/>
    <trip id="res_veh_int952" type="res_veh_int9_passenger" depart="3395.02" departLane="best" departSpeed="max" from="E22" to="E30.558"/>
    <trip id="res_veh_int953" type="res_veh_int9_passenger" depart="3397.82" departLane="best" departSpeed="max" from="E18" to="E22.488"/>
    <trip id="res_veh_int957" type="res_veh_int9_passenger" depart="3409.06" departLane="best" departSpeed="max" from="E31" to="E31.622"/>
    <trip id="res_veh_int958" type="res_veh_int9_passenger" depart="3411.86" departLane="best" departSpeed="max" from="E22" to="E30.558"/>
    <trip id="res_veh_int960" type="res_veh_int9_passenger" depart="3417.48" departLane="best" departSpeed="max" from="E31" to="E30.558"/>
    <trip id="res_veh_int961" type="res_veh_int9_passenger" depart="3420.29" departLane="best" departSpeed="max" from="E31" to="E30.558"/>
    <trip id="res_veh_int962" type="res_veh_int9_passenger" depart="3423.10" departLane="best" departSpeed="max" from="E18" to="E22.488"/>
    <trip id="res_veh_int963" type="res_veh_int9_passenger" depart="3425.90" departLane="best" departSpeed="max" from="E18" to="E31.622"/>
    <trip id="res_veh_int964" type="res_veh_int9_passenger" depart="3428.71" departLane="best" departSpeed="max" from="E31" to="E31.622"/>
    <trip id="res_veh_int965" type="res_veh_int9_passenger" depart="3431.52" departLane="best" departSpeed="max" from="E22" to="E18.410"/>
    <trip id="res_veh_int966" type="res_veh_int9_passenger" depart="3434.33" departLane="best" departSpeed="max" from="E31" to="E31.622"/>
    <trip id="res_veh_int967" type="res_veh_int9_passenger" depart="3437.14" departLane="best" departSpeed="max" from="E18" to="E22.488"/>
    <trip id="res_veh_int968" type="res_veh_int9_passenger" depart="3439.94" departLane="best" departSpeed="max" from="E18" to="E31.622"/>
    <trip id="res_veh_int969" type="res_veh_int9_passenger" depart="3442.75" departLane="best" departSpeed="max" from="E31" to="E18.410"/>
    <trip id="res_veh_int970" type="res_veh_int9_passenger" depart="3445.56" departLane="best" departSpeed="max" from="E22" to="E30.558"/>
    <trip id="res_veh_int972" type="res_veh_int9_passenger" depart="3451.18" departLane="best" departSpeed="max" from="E22" to="E18.410"/>
    <trip id="res_veh_int973" type="res_veh_int9_passenger" depart="3453.98" departLane="best" departSpeed="max" from="E30" to="E30.558"/>
    <trip id="res_veh_int974" type="res_veh_int9_passenger" depart="3456.79" departLane="best" departSpeed="max" from="E22" to="E22.488"/>
    <trip id="res_veh_int975" type="res_veh_int9_passenger" depart="3459.60" departLane="best" departSpeed="max" from="E31" to="E30.558"/>
    <trip id="res_veh_int976" type="res_veh_int9_passenger" depart="3462.41" departLane="best" departSpeed="max" from="E22" to="E30.558"/>
    <trip id="res_veh_int977" type="res_veh_int9_passenger" depart="3465.22" departLane="best" departSpeed="max" from="E18" to="E18.410"/>
    <trip id="res_veh_int978" type="res_veh_int9_passenger" depart="3468.02" departLane="best" departSpeed="max" from="E22" to="E30.558"/>
    <trip id="res_veh_int979" type="res_veh_int9_passenger" depart="3470.83" departLane="best" departSpeed="max" from="E22" to="E18.410"/>
    <trip id="res_veh_int982" type="res_veh_int9_passenger" depart="3479.26" departLane="best" departSpeed="max" from="E31" to="E18.410"/>
    <trip id="res_veh_int983" type="res_veh_int9_passenger" depart="3482.06" departLane="best" departSpeed="max" from="E22" to="E30.558"/>
    <trip id="res_veh_int984" type="res_veh_int9_passenger" depart="3484.87" departLane="best" departSpeed="max" from="E22" to="E18.410"/>
    <trip id="res_veh_int985" type="res_veh_int9_passenger" depart="3487.68" departLane="best" departSpeed="max" from="E31" to="E30.558"/>
    <trip id="res_veh_int987" type="res_veh_int9_passenger" depart="3493.30" departLane="best" departSpeed="max" from="E31" to="E18.410"/>
    <trip id="res_veh_int988" type="res_veh_int9_passenger" depart="3496.10" departLane="best" departSpeed="max" from="E18" to="E22.488"/>
    <trip id="res_veh_int989" type="res_veh_int9_passenger" depart="3498.91" departLane="best" departSpeed="max" from="E22" to="E22.488"/>
    <trip id="res_veh_int990" type="res_veh_int9_passenger" depart="3501.72" departLane="best" departSpeed="max" from="E31" to="E30.558"/>
    <trip id="res_veh_int991" type="res_veh_int9_passenger" depart="3504.53" departLane="best" departSpeed="max" from="E31" to="E18.410"/>
    <trip id="res_veh_int992" type="res_veh_int9_passenger" depart="3507.34" departLane="best" departSpeed="max" from="E22" to="E22.488"/>
    <trip id="res_veh_int993" type="res_veh_int9_passenger" depart="3510.14" departLane="best" departSpeed="max" from="E31" to="E18.410"/>
    <trip id="res_veh_int994" type="res_veh_int9_passenger" depart="3512.95" departLane="best" departSpeed="max" from="E22" to="E22.488"/>
    <trip id="res_veh_int995" type="res_veh_int9_passenger" depart="3515.76" departLane="best" departSpeed="max" from="E22" to="E22.488"/>
    <trip id="res_veh_int999" type="res_veh_int9_passenger" depart="3526.99" departLane="best" departSpeed="max" from="E31" to="E31.622"/>
    <trip id="res_veh_int9100" type="res_veh_int9_passenger" depart="3529.80" departLane="best" departSpeed="max" from="E31" to="E31.622"/>
    <trip id="res_veh_int9101" type="res_veh_int9_passenger" depart="3532.61" departLane="best" departSpeed="max" from="E31" to="E18.410"/>
    <trip id="res_veh_int9102" type="res_veh_int9_passenger" depart="3535.42" departLane="best" departSpeed="max" from="E22" to="E18.410"/>
    <trip id="res_veh_int9103" type="res_veh_int9_passenger" depart="3538.22" departLane="best" departSpeed="max" from="E22" to="E18.410"/>
    <trip id="res_veh_int9106" type="res_veh_int9_passenger" depart="3546.65" departLane="best" departSpeed="max" from="E22" to="E22.488"/>
    <trip id="res_veh_int9107" type="res_veh_int9_passenger" depart="3549.46" departLane="best" departSpeed="max" from="E31" to="E31.622"/>
    <trip id="res_veh_int9108" type="res_veh_int9_passenger" depart="3552.26" departLane="best" departSpeed="max" from="E30" to="E30.558"/>
    <trip id="res_veh_int9109" type="res_veh_int9_passenger" depart="3555.07" departLane="best" departSpeed="max" from="E18" to="E22.488"/>
    <trip id="res_veh_int9110" type="res_veh_int9_passenger" depart="3557.88" departLane="best" departSpeed="max" from="E31" to="E30.558"/>
    <trip id="res_veh_int9111" type="res_veh_int9_passenger" depart="3560.69" departLane="best" departSpeed="max" from="E30" to="E30.558"/>
    <trip id="res_veh_int9113" type="res_veh_int9_passenger" depart="3566.30" departLane="best" departSpeed="max" from="E30" to="E31.622"/>
    <trip id="res_veh_int9114" type="res_veh_int9_passenger" depart="3569.11" departLane="best" departSpeed="max" from="E18" to="E31.622"/>
    <trip id="res_veh_int9115" type="res_veh_int9_passenger" depart="3571.92" departLane="best" departSpeed="max" from="E18" to="E18.410"/>
    <trip id="res_veh_int9116" type="res_veh_int9_passenger" depart="3574.73" departLane="best" departSpeed="max" from="E30" to="E30.558"/>
    <trip id="res_veh_int9117" type="res_veh_int9_passenger" depart="3577.54" departLane="best" departSpeed="max" from="E22" to="E18.410"/>
    <trip id="res_veh_int9118" type="res_veh_int9_passenger" depart="3580.34" departLane="best" departSpeed="max" from="E31" to="E18.410"/>
    <trip id="res_veh_int9119" type="res_veh_int9_passenger" depart="3583.15" departLane="best" departSpeed="max" from="E30" to="E30.558"/>
    <trip id="res_veh_int9120" type="res_veh_int9_passenger" depart="3585.96" departLane="best" departSpeed="max" from="E22" to="E30.558"/>
    <trip id="res_veh_int9121" type="res_veh_int9_passenger" depart="3588.77" departLane="best" departSpeed="max" from="E30" to="E31.622"/>
    <trip id="res_veh_int9122" type="res_veh_int9_passenger" depart="3591.58" departLane="best" departSpeed="max" from="E22" to="E30.558"/>
    <trip id="res_veh_int9123" type="res_veh_int9_passenger" depart="3594.38" departLane="best" departSpeed="max" from="E22" to="E22.488"/>
</routes>
