<?xml version="1.0" encoding="UTF-8"?>

<!-- generated on 2025-08-02 13:30:33.841329 by randomTrips.py UNKNOWN
<configuration>
    <net-file value="osm.net.xml.gz"/>
    <weights-prefix value="random_edge_priority_interval_8"/>
    <output-trip-file value="osm.res_ped.interval_8.trips.xml"/>
    <prefix value="res_ped_int8"/>
    <trip-attributes value="departLane='best'"/>
    <fringe-start-attributes value="departSpeed='max'"/>
    <vclass value="pedestrian"/>
    <via-edge-types value="footway,path,sidewalk"/>
    <remove-loops value="True"/>
    <validate value="True"/>
    <begin value="2888.0"/>
    <end value="3248.0"/>
    <insertion-rate value="100.0"/>
</configuration>
-->

<!-- generated on 2025-08-02 13:30:33 by Eclipse SUMO duarouter Version 1.22.0
<duarouterConfiguration xmlns:xsi="http://www.w3.org/2001/XMLSchema-instance" xsi:noNamespaceSchemaLocation="http://sumo.dlr.de/xsd/duarouterConfiguration.xsd">

    <input>
        <net-file value="osm.net.xml.gz"/>
        <route-files value="osm.res_ped.interval_8.trips.xml"/>
    </input>

    <output>
        <output-file value="osm.res_ped.interval_8.trips.xml.tmp"/>
        <alternatives-output value="NUL"/>
        <write-trips value="true"/>
    </output>

    <processing>
        <remove-loops value="true"/>
    </processing>

    <time>
        <begin value="2888.0"/>
        <end value="3248.0"/>
    </time>

    <report>
        <no-warnings value="true"/>
        <ignore-errors value="true"/>
        <no-step-log value="true"/>
    </report>

</duarouterConfiguration>
-->

<routes xmlns:xsi="http://www.w3.org/2001/XMLSchema-instance" xsi:noNamespaceSchemaLocation="http://sumo.dlr.de/xsd/routes_file.xsd">
    <trip id="res_ped_int80" depart="2888.00" departLane="best" departSpeed="max" from="E31" to="E18.410"/>
    <trip id="res_ped_int81" depart="2924.00" departLane="best" departSpeed="max" from="E22" to="E18.410"/>
    <trip id="res_ped_int82" depart="2960.00" departLane="best" departSpeed="max" from="E31" to="E30.558"/>
    <trip id="res_ped_int83" depart="2996.00" departLane="best" departSpeed="max" from="E31" to="E18.410"/>
    <trip id="res_ped_int85" depart="3068.00" departLane="best" departSpeed="max" from="E22" to="E30.558"/>
    <trip id="res_ped_int86" depart="3104.00" departLane="best" departSpeed="max" from="E18" to="E18.410"/>
    <trip id="res_ped_int87" depart="3140.00" departLane="best" departSpeed="max" from="E31" to="E30.558"/>
    <trip id="res_ped_int88" depart="3176.00" departLane="best" departSpeed="max" from="E22" to="E30.558"/>
    <trip id="res_ped_int89" depart="3212.00" departLane="best" departSpeed="max" from="E31" to="E18.410"/>
</routes>
