<?xml version="1.0" encoding="UTF-8"?>

<!-- generated on 2025-08-02 13:30:19.156505 by randomTrips.py UNKNOWN
<configuration>
    <net-file value="osm.net.xml.gz"/>
    <weights-prefix value="random_edge_priority_interval_8"/>
    <output-trip-file value="osm.res_truck.interval_8.trips.xml"/>
    <prefix value="res_truck_int8"/>
    <trip-attributes value="departLane='best'"/>
    <fringe-start-attributes value="departSpeed='max'"/>
    <vehicle-class value="truck"/>
    <vclass value="truck"/>
    <remove-loops value="True"/>
    <validate value="True"/>
    <begin value="2888.0"/>
    <end value="3248.0"/>
    <insertion-rate value="250.0"/>
</configuration>
-->

<!-- generated on 2025-08-02 13:30:19 by Eclipse SUMO duarouter Version 1.22.0
<duarouterConfiguration xmlns:xsi="http://www.w3.org/2001/XMLSchema-instance" xsi:noNamespaceSchemaLocation="http://sumo.dlr.de/xsd/duarouterConfiguration.xsd">

    <input>
        <net-file value="osm.net.xml.gz"/>
        <route-files value="osm.res_truck.interval_8.trips.xml"/>
    </input>

    <output>
        <output-file value="osm.res_truck.interval_8.trips.xml.tmp"/>
        <alternatives-output value="NUL"/>
        <write-trips value="true"/>
    </output>

    <processing>
        <remove-loops value="true"/>
    </processing>

    <time>
        <begin value="2888.0"/>
        <end value="3248.0"/>
    </time>

    <report>
        <no-warnings value="true"/>
        <ignore-errors value="true"/>
        <no-step-log value="true"/>
    </report>

</duarouterConfiguration>
-->

<routes xmlns:xsi="http://www.w3.org/2001/XMLSchema-instance" xsi:noNamespaceSchemaLocation="http://sumo.dlr.de/xsd/routes_file.xsd">
    <vType id="res_truck_int8_truck" vClass="truck"/>
    <trip id="res_truck_int80" type="res_truck_int8_truck" depart="2888.00" departLane="best" departSpeed="max" from="E31" to="E18.410"/>
    <trip id="res_truck_int81" type="res_truck_int8_truck" depart="2902.40" departLane="best" departSpeed="max" from="E22" to="E18.410"/>
    <trip id="res_truck_int82" type="res_truck_int8_truck" depart="2916.80" departLane="best" departSpeed="max" from="E31" to="E30.558"/>
    <trip id="res_truck_int83" type="res_truck_int8_truck" depart="2931.20" departLane="best" departSpeed="max" from="E31" to="E18.410"/>
    <trip id="res_truck_int85" type="res_truck_int8_truck" depart="2960.00" departLane="best" departSpeed="max" from="E22" to="E30.558"/>
    <trip id="res_truck_int86" type="res_truck_int8_truck" depart="2974.40" departLane="best" departSpeed="max" from="E18" to="E18.410"/>
    <trip id="res_truck_int87" type="res_truck_int8_truck" depart="2988.80" departLane="best" departSpeed="max" from="E31" to="E30.558"/>
    <trip id="res_truck_int88" type="res_truck_int8_truck" depart="3003.20" departLane="best" departSpeed="max" from="E22" to="E30.558"/>
    <trip id="res_truck_int89" type="res_truck_int8_truck" depart="3017.60" departLane="best" departSpeed="max" from="E31" to="E18.410"/>
    <trip id="res_truck_int810" type="res_truck_int8_truck" depart="3032.00" departLane="best" departSpeed="max" from="E31" to="E30.558"/>
    <trip id="res_truck_int813" type="res_truck_int8_truck" depart="3075.20" departLane="best" departSpeed="max" from="E18" to="E18.410"/>
    <trip id="res_truck_int814" type="res_truck_int8_truck" depart="3089.60" departLane="best" departSpeed="max" from="E31" to="E30.558"/>
    <trip id="res_truck_int815" type="res_truck_int8_truck" depart="3104.00" departLane="best" departSpeed="max" from="E31" to="E30.558"/>
    <trip id="res_truck_int816" type="res_truck_int8_truck" depart="3118.40" departLane="best" departSpeed="max" from="E31" to="E31.622"/>
    <trip id="res_truck_int817" type="res_truck_int8_truck" depart="3132.80" departLane="best" departSpeed="max" from="E30" to="E30.558"/>
    <trip id="res_truck_int818" type="res_truck_int8_truck" depart="3147.20" departLane="best" departSpeed="max" from="E31" to="E30.558"/>
    <trip id="res_truck_int819" type="res_truck_int8_truck" depart="3161.60" departLane="best" departSpeed="max" from="E31" to="E30.558"/>
    <trip id="res_truck_int820" type="res_truck_int8_truck" depart="3176.00" departLane="best" departSpeed="max" from="E31" to="E18.410"/>
    <trip id="res_truck_int821" type="res_truck_int8_truck" depart="3190.40" departLane="best" departSpeed="max" from="E22" to="E22.488"/>
    <trip id="res_truck_int822" type="res_truck_int8_truck" depart="3204.80" departLane="best" departSpeed="max" from="E18" to="E18.410"/>
    <trip id="res_truck_int823" type="res_truck_int8_truck" depart="3219.20" departLane="best" departSpeed="max" from="E18" to="E22.488"/>
</routes>
