<?xml version="1.0" encoding="UTF-8"?>

<!-- generated on 2025-08-02 13:30:22.938370 by randomTrips.py UNKNOWN
<configuration>
    <net-file value="osm.net.xml.gz"/>
    <weights-prefix value="random_edge_priority_interval_3"/>
    <output-trip-file value="osm.res_bike.interval_3.trips.xml"/>
    <prefix value="res_bike_int3"/>
    <trip-attributes value="departLane='best'"/>
    <fringe-start-attributes value="departSpeed='max'"/>
    <vehicle-class value="bicycle"/>
    <vclass value="bicycle"/>
    <remove-loops value="True"/>
    <validate value="True"/>
    <begin value="1083.0"/>
    <end value="1443.0"/>
    <insertion-rate value="70.0"/>
</configuration>
-->

<!-- generated on 2025-08-02 13:30:22 by Eclipse SUMO duarouter Version 1.22.0
<duarouterConfiguration xmlns:xsi="http://www.w3.org/2001/XMLSchema-instance" xsi:noNamespaceSchemaLocation="http://sumo.dlr.de/xsd/duarouterConfiguration.xsd">

    <input>
        <net-file value="osm.net.xml.gz"/>
        <route-files value="osm.res_bike.interval_3.trips.xml"/>
    </input>

    <output>
        <output-file value="osm.res_bike.interval_3.trips.xml.tmp"/>
        <alternatives-output value="NUL"/>
        <write-trips value="true"/>
    </output>

    <processing>
        <remove-loops value="true"/>
    </processing>

    <time>
        <begin value="1083.0"/>
        <end value="1443.0"/>
    </time>

    <report>
        <no-warnings value="true"/>
        <ignore-errors value="true"/>
        <no-step-log value="true"/>
    </report>

</duarouterConfiguration>
-->

<routes xmlns:xsi="http://www.w3.org/2001/XMLSchema-instance" xsi:noNamespaceSchemaLocation="http://sumo.dlr.de/xsd/routes_file.xsd">
    <vType id="res_bike_int3_bicycle" vClass="bicycle"/>
    <trip id="res_bike_int30" type="res_bike_int3_bicycle" depart="1083.00" departLane="best" departSpeed="max" from="E22" to="E18.410"/>
    <trip id="res_bike_int31" type="res_bike_int3_bicycle" depart="1134.43" departLane="best" departSpeed="max" from="E18" to="E18.410"/>
    <trip id="res_bike_int32" type="res_bike_int3_bicycle" depart="1185.86" departLane="best" departSpeed="max" from="E22" to="E30.558"/>
    <trip id="res_bike_int33" type="res_bike_int3_bicycle" depart="1237.29" departLane="best" departSpeed="max" from="E31" to="E18.410"/>
    <trip id="res_bike_int34" type="res_bike_int3_bicycle" depart="1288.71" departLane="best" departSpeed="max" from="E22" to="E18.410"/>
    <trip id="res_bike_int36" type="res_bike_int3_bicycle" depart="1391.57" departLane="best" departSpeed="max" from="E18" to="E18.410"/>
</routes>
