<?xml version="1.0" encoding="UTF-8"?>

<!-- generated on 2025-08-02 13:29:57.620125 by randomTrips.py UNKNOWN
<configuration>
    <net-file value="osm.net.xml.gz"/>
    <weights-prefix value="random_edge_priority_interval_0"/>
    <output-trip-file value="osm.res_motorcycle.interval_0.trips.xml"/>
    <prefix value="res_motorcycle_int0"/>
    <trip-attributes value="departLane='best'"/>
    <fringe-start-attributes value="departSpeed='max'"/>
    <vehicle-class value="motorcycle"/>
    <vclass value="motorcycle"/>
    <remove-loops value="True"/>
    <validate value="True"/>
    <end value="360.0"/>
    <insertion-rate value="1750.0"/>
</configuration>
-->

<!-- generated on 2025-08-02 13:29:57 by Eclipse SUMO duarouter Version 1.22.0
<duarouterConfiguration xmlns:xsi="http://www.w3.org/2001/XMLSchema-instance" xsi:noNamespaceSchemaLocation="http://sumo.dlr.de/xsd/duarouterConfiguration.xsd">

    <input>
        <net-file value="osm.net.xml.gz"/>
        <route-files value="osm.res_motorcycle.interval_0.trips.xml"/>
    </input>

    <output>
        <output-file value="osm.res_motorcycle.interval_0.trips.xml.tmp"/>
        <alternatives-output value="NUL"/>
        <write-trips value="true"/>
    </output>

    <processing>
        <remove-loops value="true"/>
    </processing>

    <time>
        <begin value="0.0"/>
        <end value="360.0"/>
    </time>

    <report>
        <no-warnings value="true"/>
        <ignore-errors value="true"/>
        <no-step-log value="true"/>
    </report>

</duarouterConfiguration>
-->

<routes xmlns:xsi="http://www.w3.org/2001/XMLSchema-instance" xsi:noNamespaceSchemaLocation="http://sumo.dlr.de/xsd/routes_file.xsd">
    <vType id="res_motorcycle_int0_motorcycle" vClass="motorcycle"/>
    <trip id="res_motorcycle_int01" type="res_motorcycle_int0_motorcycle" depart="2.06" departLane="best" departSpeed="max" from="E18" to="E18.410"/>
    <trip id="res_motorcycle_int02" type="res_motorcycle_int0_motorcycle" depart="4.11" departLane="best" departSpeed="max" from="E31" to="E30.558"/>
    <trip id="res_motorcycle_int03" type="res_motorcycle_int0_motorcycle" depart="6.17" departLane="best" departSpeed="max" from="E31" to="E18.410"/>
    <trip id="res_motorcycle_int04" type="res_motorcycle_int0_motorcycle" depart="8.23" departLane="best" departSpeed="max" from="E22" to="E18.410"/>
    <trip id="res_motorcycle_int06" type="res_motorcycle_int0_motorcycle" depart="12.34" departLane="best" departSpeed="max" from="E18" to="E18.410"/>
    <trip id="res_motorcycle_int07" type="res_motorcycle_int0_motorcycle" depart="14.40" departLane="best" departSpeed="max" from="E30" to="E30.558"/>
    <trip id="res_motorcycle_int09" type="res_motorcycle_int0_motorcycle" depart="18.51" departLane="best" departSpeed="max" from="E31" to="E18.410"/>
    <trip id="res_motorcycle_int010" type="res_motorcycle_int0_motorcycle" depart="20.57" departLane="best" departSpeed="max" from="E31" to="E30.558"/>
    <trip id="res_motorcycle_int011" type="res_motorcycle_int0_motorcycle" depart="22.63" departLane="best" departSpeed="max" from="E22" to="E18.410"/>
    <trip id="res_motorcycle_int013" type="res_motorcycle_int0_motorcycle" depart="26.74" departLane="best" departSpeed="max" from="E18" to="E18.410"/>
    <trip id="res_motorcycle_int014" type="res_motorcycle_int0_motorcycle" depart="28.80" departLane="best" departSpeed="max" from="E31" to="E30.558"/>
    <trip id="res_motorcycle_int015" type="res_motorcycle_int0_motorcycle" depart="30.86" departLane="best" departSpeed="max" from="E31" to="E30.558"/>
    <trip id="res_motorcycle_int017" type="res_motorcycle_int0_motorcycle" depart="34.97" departLane="best" departSpeed="max" from="E22" to="E30.558"/>
    <trip id="res_motorcycle_int018" type="res_motorcycle_int0_motorcycle" depart="37.03" departLane="best" departSpeed="max" from="E31" to="E30.558"/>
    <trip id="res_motorcycle_int019" type="res_motorcycle_int0_motorcycle" depart="39.09" departLane="best" departSpeed="max" from="E31" to="E30.558"/>
    <trip id="res_motorcycle_int020" type="res_motorcycle_int0_motorcycle" depart="41.14" departLane="best" departSpeed="max" from="E31" to="E18.410"/>
    <trip id="res_motorcycle_int021" type="res_motorcycle_int0_motorcycle" depart="43.20" departLane="best" departSpeed="max" from="E18" to="E22.488"/>
    <trip id="res_motorcycle_int022" type="res_motorcycle_int0_motorcycle" depart="45.26" departLane="best" departSpeed="max" from="E18" to="E18.410"/>
    <trip id="res_motorcycle_int023" type="res_motorcycle_int0_motorcycle" depart="47.31" departLane="best" departSpeed="max" from="E18" to="E22.488"/>
    <trip id="res_motorcycle_int024" type="res_motorcycle_int0_motorcycle" depart="49.37" departLane="best" departSpeed="max" from="E30" to="E22.488"/>
    <trip id="res_motorcycle_int025" type="res_motorcycle_int0_motorcycle" depart="51.43" departLane="best" departSpeed="max" from="E22" to="E18.410"/>
    <trip id="res_motorcycle_int026" type="res_motorcycle_int0_motorcycle" depart="53.49" departLane="best" departSpeed="max" from="E18" to="E31.622"/>
    <trip id="res_motorcycle_int027" type="res_motorcycle_int0_motorcycle" depart="55.54" departLane="best" departSpeed="max" from="E30" to="E30.558"/>
    <trip id="res_motorcycle_int029" type="res_motorcycle_int0_motorcycle" depart="59.66" departLane="best" departSpeed="max" from="E18" to="E22.488"/>
    <trip id="res_motorcycle_int030" type="res_motorcycle_int0_motorcycle" depart="61.71" departLane="best" departSpeed="max" from="E31" to="E30.558"/>
    <trip id="res_motorcycle_int031" type="res_motorcycle_int0_motorcycle" depart="63.77" departLane="best" departSpeed="max" from="E22" to="E30.558"/>
    <trip id="res_motorcycle_int032" type="res_motorcycle_int0_motorcycle" depart="65.83" departLane="best" departSpeed="max" from="E31" to="E31.622"/>
    <trip id="res_motorcycle_int033" type="res_motorcycle_int0_motorcycle" depart="67.89" departLane="best" departSpeed="max" from="E18" to="E18.410"/>
    <trip id="res_motorcycle_int034" type="res_motorcycle_int0_motorcycle" depart="69.94" departLane="best" departSpeed="max" from="E18" to="E22.488"/>
    <trip id="res_motorcycle_int035" type="res_motorcycle_int0_motorcycle" depart="72.00" departLane="best" departSpeed="max" from="E18" to="E31.622"/>
    <trip id="res_motorcycle_int037" type="res_motorcycle_int0_motorcycle" depart="76.11" departLane="best" departSpeed="max" from="E30" to="E22.488"/>
    <trip id="res_motorcycle_int039" type="res_motorcycle_int0_motorcycle" depart="80.23" departLane="best" departSpeed="max" from="E18" to="E18.410"/>
    <trip id="res_motorcycle_int040" type="res_motorcycle_int0_motorcycle" depart="82.29" departLane="best" departSpeed="max" from="E22" to="E22.488"/>
    <trip id="res_motorcycle_int041" type="res_motorcycle_int0_motorcycle" depart="84.34" departLane="best" departSpeed="max" from="E30" to="E31.622"/>
    <trip id="res_motorcycle_int042" type="res_motorcycle_int0_motorcycle" depart="86.40" departLane="best" departSpeed="max" from="E22" to="E18.410"/>
    <trip id="res_motorcycle_int043" type="res_motorcycle_int0_motorcycle" depart="88.46" departLane="best" departSpeed="max" from="E31" to="E30.558"/>
    <trip id="res_motorcycle_int044" type="res_motorcycle_int0_motorcycle" depart="90.51" departLane="best" departSpeed="max" from="E18" to="E18.410"/>
    <trip id="res_motorcycle_int047" type="res_motorcycle_int0_motorcycle" depart="96.69" departLane="best" departSpeed="max" from="E18" to="E22.488"/>
    <trip id="res_motorcycle_int048" type="res_motorcycle_int0_motorcycle" depart="98.74" departLane="best" departSpeed="max" from="E31" to="E30.558"/>
    <trip id="res_motorcycle_int049" type="res_motorcycle_int0_motorcycle" depart="100.80" departLane="best" departSpeed="max" from="E31" to="E31.622"/>
    <trip id="res_motorcycle_int051" type="res_motorcycle_int0_motorcycle" depart="104.91" departLane="best" departSpeed="max" from="E30" to="E30.558"/>
    <trip id="res_motorcycle_int053" type="res_motorcycle_int0_motorcycle" depart="109.03" departLane="best" departSpeed="max" from="E18" to="E22.488"/>
    <trip id="res_motorcycle_int056" type="res_motorcycle_int0_motorcycle" depart="115.20" departLane="best" departSpeed="max" from="E22" to="E18.410"/>
    <trip id="res_motorcycle_int057" type="res_motorcycle_int0_motorcycle" depart="117.26" departLane="best" departSpeed="max" from="E31" to="E31.622"/>
    <trip id="res_motorcycle_int060" type="res_motorcycle_int0_motorcycle" depart="123.43" departLane="best" departSpeed="max" from="E31" to="E30.558"/>
    <trip id="res_motorcycle_int061" type="res_motorcycle_int0_motorcycle" depart="125.49" departLane="best" departSpeed="max" from="E31" to="E30.558"/>
    <trip id="res_motorcycle_int062" type="res_motorcycle_int0_motorcycle" depart="127.54" departLane="best" departSpeed="max" from="E18" to="E22.488"/>
    <trip id="res_motorcycle_int063" type="res_motorcycle_int0_motorcycle" depart="129.60" departLane="best" departSpeed="max" from="E18" to="E31.622"/>
    <trip id="res_motorcycle_int064" type="res_motorcycle_int0_motorcycle" depart="131.66" departLane="best" departSpeed="max" from="E31" to="E31.622"/>
    <trip id="res_motorcycle_int065" type="res_motorcycle_int0_motorcycle" depart="133.71" departLane="best" departSpeed="max" from="E18" to="E18.410"/>
    <trip id="res_motorcycle_int066" type="res_motorcycle_int0_motorcycle" depart="135.77" departLane="best" departSpeed="max" from="E31" to="E31.622"/>
    <trip id="res_motorcycle_int067" type="res_motorcycle_int0_motorcycle" depart="137.83" departLane="best" departSpeed="max" from="E18" to="E22.488"/>
    <trip id="res_motorcycle_int068" type="res_motorcycle_int0_motorcycle" depart="139.89" departLane="best" departSpeed="max" from="E18" to="E31.622"/>
    <trip id="res_motorcycle_int069" type="res_motorcycle_int0_motorcycle" depart="141.94" departLane="best" departSpeed="max" from="E31" to="E18.410"/>
    <trip id="res_motorcycle_int070" type="res_motorcycle_int0_motorcycle" depart="144.00" departLane="best" departSpeed="max" from="E22" to="E30.558"/>
    <trip id="res_motorcycle_int071" type="res_motorcycle_int0_motorcycle" depart="146.06" departLane="best" departSpeed="max" from="E18" to="E31.622"/>
    <trip id="res_motorcycle_int072" type="res_motorcycle_int0_motorcycle" depart="148.11" departLane="best" departSpeed="max" from="E22" to="E18.410"/>
    <trip id="res_motorcycle_int073" type="res_motorcycle_int0_motorcycle" depart="150.17" departLane="best" departSpeed="max" from="E22" to="E30.558"/>
    <trip id="res_motorcycle_int074" type="res_motorcycle_int0_motorcycle" depart="152.23" departLane="best" departSpeed="max" from="E18" to="E22.488"/>
    <trip id="res_motorcycle_int075" type="res_motorcycle_int0_motorcycle" depart="154.29" departLane="best" departSpeed="max" from="E31" to="E30.558"/>
    <trip id="res_motorcycle_int076" type="res_motorcycle_int0_motorcycle" depart="156.34" departLane="best" departSpeed="max" from="E22" to="E30.558"/>
    <trip id="res_motorcycle_int077" type="res_motorcycle_int0_motorcycle" depart="158.40" departLane="best" departSpeed="max" from="E18" to="E18.410"/>
    <trip id="res_motorcycle_int079" type="res_motorcycle_int0_motorcycle" depart="162.51" departLane="best" departSpeed="max" from="E18" to="E18.410"/>
    <trip id="res_motorcycle_int081" type="res_motorcycle_int0_motorcycle" depart="166.63" departLane="best" departSpeed="max" from="E18" to="E31.622"/>
    <trip id="res_motorcycle_int082" type="res_motorcycle_int0_motorcycle" depart="168.69" departLane="best" departSpeed="max" from="E31" to="E18.410"/>
    <trip id="res_motorcycle_int084" type="res_motorcycle_int0_motorcycle" depart="172.80" departLane="best" departSpeed="max" from="E18" to="E18.410"/>
    <trip id="res_motorcycle_int085" type="res_motorcycle_int0_motorcycle" depart="174.86" departLane="best" departSpeed="max" from="E31" to="E30.558"/>
    <trip id="res_motorcycle_int087" type="res_motorcycle_int0_motorcycle" depart="178.97" departLane="best" departSpeed="max" from="E31" to="E18.410"/>
    <trip id="res_motorcycle_int088" type="res_motorcycle_int0_motorcycle" depart="181.03" departLane="best" departSpeed="max" from="E18" to="E22.488"/>
    <trip id="res_motorcycle_int089" type="res_motorcycle_int0_motorcycle" depart="183.09" departLane="best" departSpeed="max" from="E22" to="E22.488"/>
    <trip id="res_motorcycle_int090" type="res_motorcycle_int0_motorcycle" depart="185.14" departLane="best" departSpeed="max" from="E31" to="E30.558"/>
    <trip id="res_motorcycle_int091" type="res_motorcycle_int0_motorcycle" depart="187.20" departLane="best" departSpeed="max" from="E31" to="E18.410"/>
    <trip id="res_motorcycle_int092" type="res_motorcycle_int0_motorcycle" depart="189.26" departLane="best" departSpeed="max" from="E22" to="E22.488"/>
    <trip id="res_motorcycle_int093" type="res_motorcycle_int0_motorcycle" depart="191.31" departLane="best" departSpeed="max" from="E31" to="E18.410"/>
    <trip id="res_motorcycle_int094" type="res_motorcycle_int0_motorcycle" depart="193.37" departLane="best" departSpeed="max" from="E18" to="E22.488"/>
    <trip id="res_motorcycle_int095" type="res_motorcycle_int0_motorcycle" depart="195.43" departLane="best" departSpeed="max" from="E22" to="E22.488"/>
    <trip id="res_motorcycle_int096" type="res_motorcycle_int0_motorcycle" depart="197.49" departLane="best" departSpeed="max" from="E18" to="E31.622"/>
    <trip id="res_motorcycle_int098" type="res_motorcycle_int0_motorcycle" depart="201.60" departLane="best" departSpeed="max" from="E22" to="E18.410"/>
    <trip id="res_motorcycle_int099" type="res_motorcycle_int0_motorcycle" depart="203.66" departLane="best" departSpeed="max" from="E31" to="E31.622"/>
    <trip id="res_motorcycle_int0100" type="res_motorcycle_int0_motorcycle" depart="205.71" departLane="best" departSpeed="max" from="E31" to="E31.622"/>
    <trip id="res_motorcycle_int0101" type="res_motorcycle_int0_motorcycle" depart="207.77" departLane="best" departSpeed="max" from="E31" to="E18.410"/>
    <trip id="res_motorcycle_int0102" type="res_motorcycle_int0_motorcycle" depart="209.83" departLane="best" departSpeed="max" from="E22" to="E18.410"/>
    <trip id="res_motorcycle_int0103" type="res_motorcycle_int0_motorcycle" depart="211.89" departLane="best" departSpeed="max" from="E22" to="E18.410"/>
    <trip id="res_motorcycle_int0105" type="res_motorcycle_int0_motorcycle" depart="216.00" departLane="best" departSpeed="max" from="E18" to="E31.622"/>
    <trip id="res_motorcycle_int0106" type="res_motorcycle_int0_motorcycle" depart="218.06" departLane="best" departSpeed="max" from="E22" to="E22.488"/>
    <trip id="res_motorcycle_int0107" type="res_motorcycle_int0_motorcycle" depart="220.11" departLane="best" departSpeed="max" from="E31" to="E31.622"/>
    <trip id="res_motorcycle_int0108" type="res_motorcycle_int0_motorcycle" depart="222.17" departLane="best" departSpeed="max" from="E22" to="E30.558"/>
    <trip id="res_motorcycle_int0109" type="res_motorcycle_int0_motorcycle" depart="224.23" departLane="best" departSpeed="max" from="E18" to="E22.488"/>
    <trip id="res_motorcycle_int0110" type="res_motorcycle_int0_motorcycle" depart="226.29" departLane="best" departSpeed="max" from="E31" to="E30.558"/>
    <trip id="res_motorcycle_int0111" type="res_motorcycle_int0_motorcycle" depart="228.34" departLane="best" departSpeed="max" from="E22" to="E30.558"/>
    <trip id="res_motorcycle_int0114" type="res_motorcycle_int0_motorcycle" depart="234.51" departLane="best" departSpeed="max" from="E18" to="E31.622"/>
    <trip id="res_motorcycle_int0115" type="res_motorcycle_int0_motorcycle" depart="236.57" departLane="best" departSpeed="max" from="E18" to="E18.410"/>
    <trip id="res_motorcycle_int0116" type="res_motorcycle_int0_motorcycle" depart="238.63" departLane="best" departSpeed="max" from="E30" to="E30.558"/>
    <trip id="res_motorcycle_int0117" type="res_motorcycle_int0_motorcycle" depart="240.69" departLane="best" departSpeed="max" from="E18" to="E18.410"/>
    <trip id="res_motorcycle_int0118" type="res_motorcycle_int0_motorcycle" depart="242.74" departLane="best" departSpeed="max" from="E31" to="E18.410"/>
    <trip id="res_motorcycle_int0119" type="res_motorcycle_int0_motorcycle" depart="244.80" departLane="best" departSpeed="max" from="E30" to="E30.558"/>
    <trip id="res_motorcycle_int0120" type="res_motorcycle_int0_motorcycle" depart="246.86" departLane="best" departSpeed="max" from="E22" to="E30.558"/>
    <trip id="res_motorcycle_int0123" type="res_motorcycle_int0_motorcycle" depart="253.03" departLane="best" departSpeed="max" from="E18" to="E22.488"/>
    <trip id="res_motorcycle_int0124" type="res_motorcycle_int0_motorcycle" depart="255.09" departLane="best" departSpeed="max" from="E30" to="E22.488"/>
    <trip id="res_motorcycle_int0125" type="res_motorcycle_int0_motorcycle" depart="257.14" departLane="best" departSpeed="max" from="E18" to="E31.622"/>
    <trip id="res_motorcycle_int0126" type="res_motorcycle_int0_motorcycle" depart="259.20" departLane="best" departSpeed="max" from="E18" to="E22.488"/>
    <trip id="res_motorcycle_int0127" type="res_motorcycle_int0_motorcycle" depart="261.26" departLane="best" departSpeed="max" from="E31" to="E31.622"/>
    <trip id="res_motorcycle_int0128" type="res_motorcycle_int0_motorcycle" depart="263.31" departLane="best" departSpeed="max" from="E18" to="E18.410"/>
    <trip id="res_motorcycle_int0129" type="res_motorcycle_int0_motorcycle" depart="265.37" departLane="best" departSpeed="max" from="E18" to="E31.622"/>
    <trip id="res_motorcycle_int0130" type="res_motorcycle_int0_motorcycle" depart="267.43" departLane="best" departSpeed="max" from="E31" to="E31.622"/>
    <trip id="res_motorcycle_int0131" type="res_motorcycle_int0_motorcycle" depart="269.49" departLane="best" departSpeed="max" from="E22" to="E18.410"/>
    <trip id="res_motorcycle_int0132" type="res_motorcycle_int0_motorcycle" depart="271.54" departLane="best" departSpeed="max" from="E31" to="E30.558"/>
    <trip id="res_motorcycle_int0133" type="res_motorcycle_int0_motorcycle" depart="273.60" departLane="best" departSpeed="max" from="E30" to="E31.622"/>
    <trip id="res_motorcycle_int0136" type="res_motorcycle_int0_motorcycle" depart="279.77" departLane="best" departSpeed="max" from="E30" to="E31.622"/>
    <trip id="res_motorcycle_int0137" type="res_motorcycle_int0_motorcycle" depart="281.83" departLane="best" departSpeed="max" from="E18" to="E18.410"/>
    <trip id="res_motorcycle_int0140" type="res_motorcycle_int0_motorcycle" depart="288.00" departLane="best" departSpeed="max" from="E31" to="E18.410"/>
    <trip id="res_motorcycle_int0141" type="res_motorcycle_int0_motorcycle" depart="290.06" departLane="best" departSpeed="max" from="E30" to="E22.488"/>
    <trip id="res_motorcycle_int0143" type="res_motorcycle_int0_motorcycle" depart="294.17" departLane="best" departSpeed="max" from="E31" to="E18.410"/>
    <trip id="res_motorcycle_int0144" type="res_motorcycle_int0_motorcycle" depart="296.23" departLane="best" departSpeed="max" from="E22" to="E22.488"/>
    <trip id="res_motorcycle_int0145" type="res_motorcycle_int0_motorcycle" depart="298.29" departLane="best" departSpeed="max" from="E18" to="E31.622"/>
    <trip id="res_motorcycle_int0146" type="res_motorcycle_int0_motorcycle" depart="300.34" departLane="best" departSpeed="max" from="E30" to="E22.488"/>
    <trip id="res_motorcycle_int0147" type="res_motorcycle_int0_motorcycle" depart="302.40" departLane="best" departSpeed="max" from="E31" to="E30.558"/>
    <trip id="res_motorcycle_int0148" type="res_motorcycle_int0_motorcycle" depart="304.46" departLane="best" departSpeed="max" from="E22" to="E18.410"/>
    <trip id="res_motorcycle_int0149" type="res_motorcycle_int0_motorcycle" depart="306.51" departLane="best" departSpeed="max" from="E18" to="E31.622"/>
    <trip id="res_motorcycle_int0150" type="res_motorcycle_int0_motorcycle" depart="308.57" departLane="best" departSpeed="max" from="E31" to="E30.558"/>
    <trip id="res_motorcycle_int0151" type="res_motorcycle_int0_motorcycle" depart="310.63" departLane="best" departSpeed="max" from="E31" to="E30.558"/>
    <trip id="res_motorcycle_int0152" type="res_motorcycle_int0_motorcycle" depart="312.69" departLane="best" departSpeed="max" from="E18" to="E18.410"/>
    <trip id="res_motorcycle_int0153" type="res_motorcycle_int0_motorcycle" depart="314.74" departLane="best" departSpeed="max" from="E18" to="E31.622"/>
    <trip id="res_motorcycle_int0154" type="res_motorcycle_int0_motorcycle" depart="316.80" departLane="best" departSpeed="max" from="E31" to="E31.622"/>
    <trip id="res_motorcycle_int0155" type="res_motorcycle_int0_motorcycle" depart="318.86" departLane="best" departSpeed="max" from="E31" to="E18.410"/>
    <trip id="res_motorcycle_int0156" type="res_motorcycle_int0_motorcycle" depart="320.91" departLane="best" departSpeed="max" from="E18" to="E18.410"/>
    <trip id="res_motorcycle_int0157" type="res_motorcycle_int0_motorcycle" depart="322.97" departLane="best" departSpeed="max" from="E31" to="E31.622"/>
    <trip id="res_motorcycle_int0158" type="res_motorcycle_int0_motorcycle" depart="325.03" departLane="best" departSpeed="max" from="E22" to="E30.558"/>
    <trip id="res_motorcycle_int0159" type="res_motorcycle_int0_motorcycle" depart="327.09" departLane="best" departSpeed="max" from="E18" to="E31.622"/>
    <trip id="res_motorcycle_int0160" type="res_motorcycle_int0_motorcycle" depart="329.14" departLane="best" departSpeed="max" from="E31" to="E31.622"/>
    <trip id="res_motorcycle_int0161" type="res_motorcycle_int0_motorcycle" depart="331.20" departLane="best" departSpeed="max" from="E31" to="E31.622"/>
    <trip id="res_motorcycle_int0163" type="res_motorcycle_int0_motorcycle" depart="335.31" departLane="best" departSpeed="max" from="E18" to="E31.622"/>
    <trip id="res_motorcycle_int0164" type="res_motorcycle_int0_motorcycle" depart="337.37" departLane="best" departSpeed="max" from="E31" to="E31.622"/>
    <trip id="res_motorcycle_int0166" type="res_motorcycle_int0_motorcycle" depart="341.49" departLane="best" departSpeed="max" from="E31" to="E18.410"/>
    <trip id="res_motorcycle_int0167" type="res_motorcycle_int0_motorcycle" depart="343.54" departLane="best" departSpeed="max" from="E31" to="E31.622"/>
    <trip id="res_motorcycle_int0168" type="res_motorcycle_int0_motorcycle" depart="345.60" departLane="best" departSpeed="max" from="E18" to="E31.622"/>
    <trip id="res_motorcycle_int0169" type="res_motorcycle_int0_motorcycle" depart="347.66" departLane="best" departSpeed="max" from="E22" to="E22.488"/>
    <trip id="res_motorcycle_int0170" type="res_motorcycle_int0_motorcycle" depart="349.71" departLane="best" departSpeed="max" from="E31" to="E18.410"/>
    <trip id="res_motorcycle_int0171" type="res_motorcycle_int0_motorcycle" depart="351.77" departLane="best" departSpeed="max" from="E18" to="E18.410"/>
    <trip id="res_motorcycle_int0172" type="res_motorcycle_int0_motorcycle" depart="353.83" departLane="best" departSpeed="max" from="E18" to="E31.622"/>
    <trip id="res_motorcycle_int0174" type="res_motorcycle_int0_motorcycle" depart="357.94" departLane="best" departSpeed="max" from="E30" to="E22.488"/>
</routes>
