<?xml version="1.0" encoding="UTF-8"?>

<!-- generated on 2025-08-02 13:30:17.078388 by randomTrips.py UNKNOWN
<configuration>
    <net-file value="osm.net.xml.gz"/>
    <weights-prefix value="random_edge_priority_interval_5"/>
    <output-trip-file value="osm.res_truck.interval_5.trips.xml"/>
    <prefix value="res_truck_int5"/>
    <trip-attributes value="departLane='best'"/>
    <fringe-start-attributes value="departSpeed='max'"/>
    <vehicle-class value="truck"/>
    <vclass value="truck"/>
    <remove-loops value="True"/>
    <validate value="True"/>
    <begin value="1805.0"/>
    <end value="2165.0"/>
    <insertion-rate value="250.0"/>
</configuration>
-->

<!-- generated on 2025-08-02 13:30:17 by Eclipse SUMO duarouter Version 1.22.0
<duarouterConfiguration xmlns:xsi="http://www.w3.org/2001/XMLSchema-instance" xsi:noNamespaceSchemaLocation="http://sumo.dlr.de/xsd/duarouterConfiguration.xsd">

    <input>
        <net-file value="osm.net.xml.gz"/>
        <route-files value="osm.res_truck.interval_5.trips.xml"/>
    </input>

    <output>
        <output-file value="osm.res_truck.interval_5.trips.xml.tmp"/>
        <alternatives-output value="NUL"/>
        <write-trips value="true"/>
    </output>

    <processing>
        <remove-loops value="true"/>
    </processing>

    <time>
        <begin value="1805.0"/>
        <end value="2165.0"/>
    </time>

    <report>
        <no-warnings value="true"/>
        <ignore-errors value="true"/>
        <no-step-log value="true"/>
    </report>

</duarouterConfiguration>
-->

<routes xmlns:xsi="http://www.w3.org/2001/XMLSchema-instance" xsi:noNamespaceSchemaLocation="http://sumo.dlr.de/xsd/routes_file.xsd">
    <vType id="res_truck_int5_truck" vClass="truck"/>
    <trip id="res_truck_int50" type="res_truck_int5_truck" depart="1805.00" departLane="best" departSpeed="max" from="E31" to="E18.410"/>
    <trip id="res_truck_int51" type="res_truck_int5_truck" depart="1819.40" departLane="best" departSpeed="max" from="E22" to="E18.410"/>
    <trip id="res_truck_int52" type="res_truck_int5_truck" depart="1833.80" departLane="best" departSpeed="max" from="E31" to="E30.558"/>
    <trip id="res_truck_int53" type="res_truck_int5_truck" depart="1848.20" departLane="best" departSpeed="max" from="E31" to="E18.410"/>
    <trip id="res_truck_int54" type="res_truck_int5_truck" depart="1862.60" departLane="best" departSpeed="max" from="E22" to="E18.410"/>
    <trip id="res_truck_int55" type="res_truck_int5_truck" depart="1877.00" departLane="best" departSpeed="max" from="E22" to="E30.558"/>
    <trip id="res_truck_int56" type="res_truck_int5_truck" depart="1891.40" departLane="best" departSpeed="max" from="E18" to="E18.410"/>
    <trip id="res_truck_int57" type="res_truck_int5_truck" depart="1905.80" departLane="best" departSpeed="max" from="E31" to="E30.558"/>
    <trip id="res_truck_int58" type="res_truck_int5_truck" depart="1920.20" departLane="best" departSpeed="max" from="E22" to="E30.558"/>
    <trip id="res_truck_int59" type="res_truck_int5_truck" depart="1934.60" departLane="best" departSpeed="max" from="E31" to="E18.410"/>
    <trip id="res_truck_int510" type="res_truck_int5_truck" depart="1949.00" departLane="best" departSpeed="max" from="E31" to="E30.558"/>
    <trip id="res_truck_int511" type="res_truck_int5_truck" depart="1963.40" departLane="best" departSpeed="max" from="E22" to="E18.410"/>
    <trip id="res_truck_int513" type="res_truck_int5_truck" depart="1992.20" departLane="best" departSpeed="max" from="E18" to="E18.410"/>
    <trip id="res_truck_int514" type="res_truck_int5_truck" depart="2006.60" departLane="best" departSpeed="max" from="E31" to="E30.558"/>
    <trip id="res_truck_int515" type="res_truck_int5_truck" depart="2021.00" departLane="best" departSpeed="max" from="E31" to="E30.558"/>
    <trip id="res_truck_int516" type="res_truck_int5_truck" depart="2035.40" departLane="best" departSpeed="max" from="E30" to="E31.622"/>
    <trip id="res_truck_int517" type="res_truck_int5_truck" depart="2049.80" departLane="best" departSpeed="max" from="E22" to="E30.558"/>
    <trip id="res_truck_int518" type="res_truck_int5_truck" depart="2064.20" departLane="best" departSpeed="max" from="E31" to="E30.558"/>
    <trip id="res_truck_int519" type="res_truck_int5_truck" depart="2078.60" departLane="best" departSpeed="max" from="E31" to="E30.558"/>
    <trip id="res_truck_int520" type="res_truck_int5_truck" depart="2093.00" departLane="best" departSpeed="max" from="E31" to="E18.410"/>
    <trip id="res_truck_int521" type="res_truck_int5_truck" depart="2107.40" departLane="best" departSpeed="max" from="E22" to="E22.488"/>
    <trip id="res_truck_int522" type="res_truck_int5_truck" depart="2121.80" departLane="best" departSpeed="max" from="E18" to="E18.410"/>
    <trip id="res_truck_int523" type="res_truck_int5_truck" depart="2136.20" departLane="best" departSpeed="max" from="E18" to="E22.488"/>
</routes>
