<?xml version="1.0" encoding="UTF-8"?>

<!-- generated on 2025-08-02 13:30:24.429521 by randomTrips.py UNKNOWN
<configuration>
    <net-file value="osm.net.xml.gz"/>
    <weights-prefix value="random_edge_priority_interval_5"/>
    <output-trip-file value="osm.res_bike.interval_5.trips.xml"/>
    <prefix value="res_bike_int5"/>
    <trip-attributes value="departLane='best'"/>
    <fringe-start-attributes value="departSpeed='max'"/>
    <vehicle-class value="bicycle"/>
    <vclass value="bicycle"/>
    <remove-loops value="True"/>
    <validate value="True"/>
    <begin value="1805.0"/>
    <end value="2165.0"/>
    <insertion-rate value="70.0"/>
</configuration>
-->

<!-- generated on 2025-08-02 13:30:24 by Eclipse SUMO duarouter Version 1.22.0
<duarouterConfiguration xmlns:xsi="http://www.w3.org/2001/XMLSchema-instance" xsi:noNamespaceSchemaLocation="http://sumo.dlr.de/xsd/duarouterConfiguration.xsd">

    <input>
        <net-file value="osm.net.xml.gz"/>
        <route-files value="osm.res_bike.interval_5.trips.xml"/>
    </input>

    <output>
        <output-file value="osm.res_bike.interval_5.trips.xml.tmp"/>
        <alternatives-output value="NUL"/>
        <write-trips value="true"/>
    </output>

    <processing>
        <remove-loops value="true"/>
    </processing>

    <time>
        <begin value="1805.0"/>
        <end value="2165.0"/>
    </time>

    <report>
        <no-warnings value="true"/>
        <ignore-errors value="true"/>
        <no-step-log value="true"/>
    </report>

</duarouterConfiguration>
-->

<routes xmlns:xsi="http://www.w3.org/2001/XMLSchema-instance" xsi:noNamespaceSchemaLocation="http://sumo.dlr.de/xsd/routes_file.xsd">
    <vType id="res_bike_int5_bicycle" vClass="bicycle"/>
    <trip id="res_bike_int50" type="res_bike_int5_bicycle" depart="1805.00" departLane="best" departSpeed="max" from="E31" to="E18.410"/>
    <trip id="res_bike_int51" type="res_bike_int5_bicycle" depart="1856.43" departLane="best" departSpeed="max" from="E22" to="E18.410"/>
    <trip id="res_bike_int52" type="res_bike_int5_bicycle" depart="1907.86" departLane="best" departSpeed="max" from="E31" to="E30.558"/>
    <trip id="res_bike_int53" type="res_bike_int5_bicycle" depart="1959.29" departLane="best" departSpeed="max" from="E31" to="E18.410"/>
    <trip id="res_bike_int54" type="res_bike_int5_bicycle" depart="2010.71" departLane="best" departSpeed="max" from="E22" to="E18.410"/>
    <trip id="res_bike_int55" type="res_bike_int5_bicycle" depart="2062.14" departLane="best" departSpeed="max" from="E22" to="E30.558"/>
    <trip id="res_bike_int56" type="res_bike_int5_bicycle" depart="2113.57" departLane="best" departSpeed="max" from="E18" to="E18.410"/>
</routes>
