<?xml version="1.0" encoding="UTF-8"?>

<!-- generated on 2025-08-02 13:30:10.164773 by randomTrips.py UNKNOWN
<configuration>
    <net-file value="osm.net.xml.gz"/>
    <weights-prefix value="random_edge_priority_interval_6"/>
    <output-trip-file value="osm.res_veh.interval_6.trips.xml"/>
    <prefix value="res_veh_int6"/>
    <trip-attributes value="departLane='best'"/>
    <fringe-start-attributes value="departSpeed='max'"/>
    <vehicle-class value="passenger"/>
    <remove-loops value="True"/>
    <validate value="True"/>
    <begin value="2166.0"/>
    <end value="2526.0"/>
    <insertion-rate value="5000.0"/>
</configuration>
-->

<!-- generated on 2025-08-02 13:30:10 by Eclipse SUMO duarouter Version 1.22.0
<duarouterConfiguration xmlns:xsi="http://www.w3.org/2001/XMLSchema-instance" xsi:noNamespaceSchemaLocation="http://sumo.dlr.de/xsd/duarouterConfiguration.xsd">

    <input>
        <net-file value="osm.net.xml.gz"/>
        <route-files value="osm.res_veh.interval_6.trips.xml"/>
    </input>

    <output>
        <output-file value="osm.res_veh.interval_6.trips.xml.tmp"/>
        <alternatives-output value="NUL"/>
        <write-trips value="true"/>
    </output>

    <processing>
        <remove-loops value="true"/>
    </processing>

    <time>
        <begin value="2166.0"/>
        <end value="2526.0"/>
    </time>

    <report>
        <no-warnings value="true"/>
        <ignore-errors value="true"/>
        <no-step-log value="true"/>
    </report>

</duarouterConfiguration>
-->

<routes xmlns:xsi="http://www.w3.org/2001/XMLSchema-instance" xsi:noNamespaceSchemaLocation="http://sumo.dlr.de/xsd/routes_file.xsd">
    <vType id="res_veh_int6_passenger" vClass="passenger"/>
    <trip id="res_veh_int60" type="res_veh_int6_passenger" depart="2166.00" departLane="best" departSpeed="max" from="E22" to="E18.410"/>
    <trip id="res_veh_int61" type="res_veh_int6_passenger" depart="2166.72" departLane="best" departSpeed="max" from="E18" to="E18.410"/>
    <trip id="res_veh_int62" type="res_veh_int6_passenger" depart="2167.44" departLane="best" departSpeed="max" from="E30" to="E30.558"/>
    <trip id="res_veh_int63" type="res_veh_int6_passenger" depart="2168.16" departLane="best" departSpeed="max" from="E31" to="E18.410"/>
    <trip id="res_veh_int64" type="res_veh_int6_passenger" depart="2168.88" departLane="best" departSpeed="max" from="E22" to="E18.410"/>
    <trip id="res_veh_int66" type="res_veh_int6_passenger" depart="2170.32" departLane="best" departSpeed="max" from="E18" to="E18.410"/>
    <trip id="res_veh_int67" type="res_veh_int6_passenger" depart="2171.04" departLane="best" departSpeed="max" from="E22" to="E30.558"/>
    <trip id="res_veh_int69" type="res_veh_int6_passenger" depart="2172.48" departLane="best" departSpeed="max" from="E31" to="E18.410"/>
    <trip id="res_veh_int610" type="res_veh_int6_passenger" depart="2173.20" departLane="best" departSpeed="max" from="E31" to="E30.558"/>
    <trip id="res_veh_int611" type="res_veh_int6_passenger" depart="2173.92" departLane="best" departSpeed="max" from="E22" to="E18.410"/>
    <trip id="res_veh_int613" type="res_veh_int6_passenger" depart="2175.36" departLane="best" departSpeed="max" from="E18" to="E18.410"/>
    <trip id="res_veh_int614" type="res_veh_int6_passenger" depart="2176.08" departLane="best" departSpeed="max" from="E31" to="E30.558"/>
    <trip id="res_veh_int615" type="res_veh_int6_passenger" depart="2176.80" departLane="best" departSpeed="max" from="E31" to="E30.558"/>
    <trip id="res_veh_int617" type="res_veh_int6_passenger" depart="2178.24" departLane="best" departSpeed="max" from="E22" to="E30.558"/>
    <trip id="res_veh_int618" type="res_veh_int6_passenger" depart="2178.96" departLane="best" departSpeed="max" from="E31" to="E30.558"/>
    <trip id="res_veh_int619" type="res_veh_int6_passenger" depart="2179.68" departLane="best" departSpeed="max" from="E31" to="E30.558"/>
    <trip id="res_veh_int621" type="res_veh_int6_passenger" depart="2181.12" departLane="best" departSpeed="max" from="E18" to="E22.488"/>
    <trip id="res_veh_int622" type="res_veh_int6_passenger" depart="2181.84" departLane="best" departSpeed="max" from="E18" to="E18.410"/>
    <trip id="res_veh_int623" type="res_veh_int6_passenger" depart="2182.56" departLane="best" departSpeed="max" from="E18" to="E22.488"/>
    <trip id="res_veh_int624" type="res_veh_int6_passenger" depart="2183.28" departLane="best" departSpeed="max" from="E22" to="E22.488"/>
    <trip id="res_veh_int625" type="res_veh_int6_passenger" depart="2184.00" departLane="best" departSpeed="max" from="E22" to="E18.410"/>
    <trip id="res_veh_int626" type="res_veh_int6_passenger" depart="2184.72" departLane="best" departSpeed="max" from="E18" to="E31.622"/>
    <trip id="res_veh_int627" type="res_veh_int6_passenger" depart="2185.44" departLane="best" departSpeed="max" from="E22" to="E30.558"/>
    <trip id="res_veh_int629" type="res_veh_int6_passenger" depart="2186.88" departLane="best" departSpeed="max" from="E18" to="E22.488"/>
    <trip id="res_veh_int630" type="res_veh_int6_passenger" depart="2187.60" departLane="best" departSpeed="max" from="E31" to="E30.558"/>
    <trip id="res_veh_int631" type="res_veh_int6_passenger" depart="2188.32" departLane="best" departSpeed="max" from="E22" to="E30.558"/>
    <trip id="res_veh_int632" type="res_veh_int6_passenger" depart="2189.04" departLane="best" departSpeed="max" from="E31" to="E31.622"/>
    <trip id="res_veh_int633" type="res_veh_int6_passenger" depart="2189.76" departLane="best" departSpeed="max" from="E18" to="E18.410"/>
    <trip id="res_veh_int634" type="res_veh_int6_passenger" depart="2190.48" departLane="best" departSpeed="max" from="E22" to="E22.488"/>
    <trip id="res_veh_int635" type="res_veh_int6_passenger" depart="2191.20" departLane="best" departSpeed="max" from="E18" to="E31.622"/>
    <trip id="res_veh_int637" type="res_veh_int6_passenger" depart="2192.64" departLane="best" departSpeed="max" from="E22" to="E22.488"/>
    <trip id="res_veh_int639" type="res_veh_int6_passenger" depart="2194.08" departLane="best" departSpeed="max" from="E18" to="E18.410"/>
    <trip id="res_veh_int640" type="res_veh_int6_passenger" depart="2194.80" departLane="best" departSpeed="max" from="E22" to="E22.488"/>
    <trip id="res_veh_int642" type="res_veh_int6_passenger" depart="2196.24" departLane="best" departSpeed="max" from="E22" to="E18.410"/>
    <trip id="res_veh_int643" type="res_veh_int6_passenger" depart="2196.96" departLane="best" departSpeed="max" from="E31" to="E30.558"/>
    <trip id="res_veh_int644" type="res_veh_int6_passenger" depart="2197.68" departLane="best" departSpeed="max" from="E18" to="E18.410"/>
    <trip id="res_veh_int647" type="res_veh_int6_passenger" depart="2199.84" departLane="best" departSpeed="max" from="E18" to="E22.488"/>
    <trip id="res_veh_int648" type="res_veh_int6_passenger" depart="2200.56" departLane="best" departSpeed="max" from="E31" to="E30.558"/>
    <trip id="res_veh_int649" type="res_veh_int6_passenger" depart="2201.28" departLane="best" departSpeed="max" from="E31" to="E31.622"/>
    <trip id="res_veh_int651" type="res_veh_int6_passenger" depart="2202.72" departLane="best" departSpeed="max" from="E30" to="E30.558"/>
    <trip id="res_veh_int653" type="res_veh_int6_passenger" depart="2204.16" departLane="best" departSpeed="max" from="E18" to="E22.488"/>
    <trip id="res_veh_int656" type="res_veh_int6_passenger" depart="2206.32" departLane="best" departSpeed="max" from="E22" to="E18.410"/>
    <trip id="res_veh_int657" type="res_veh_int6_passenger" depart="2207.04" departLane="best" departSpeed="max" from="E31" to="E31.622"/>
    <trip id="res_veh_int658" type="res_veh_int6_passenger" depart="2207.76" departLane="best" departSpeed="max" from="E22" to="E30.558"/>
    <trip id="res_veh_int659" type="res_veh_int6_passenger" depart="2208.48" departLane="best" departSpeed="max" from="E22" to="E18.410"/>
    <trip id="res_veh_int660" type="res_veh_int6_passenger" depart="2209.20" departLane="best" departSpeed="max" from="E31" to="E30.558"/>
    <trip id="res_veh_int661" type="res_veh_int6_passenger" depart="2209.92" departLane="best" departSpeed="max" from="E31" to="E30.558"/>
    <trip id="res_veh_int662" type="res_veh_int6_passenger" depart="2210.64" departLane="best" departSpeed="max" from="E18" to="E22.488"/>
    <trip id="res_veh_int663" type="res_veh_int6_passenger" depart="2211.36" departLane="best" departSpeed="max" from="E18" to="E31.622"/>
    <trip id="res_veh_int664" type="res_veh_int6_passenger" depart="2212.08" departLane="best" departSpeed="max" from="E31" to="E31.622"/>
    <trip id="res_veh_int665" type="res_veh_int6_passenger" depart="2212.80" departLane="best" departSpeed="max" from="E22" to="E18.410"/>
    <trip id="res_veh_int666" type="res_veh_int6_passenger" depart="2213.52" departLane="best" departSpeed="max" from="E31" to="E31.622"/>
    <trip id="res_veh_int667" type="res_veh_int6_passenger" depart="2214.24" departLane="best" departSpeed="max" from="E18" to="E22.488"/>
    <trip id="res_veh_int668" type="res_veh_int6_passenger" depart="2214.96" departLane="best" departSpeed="max" from="E18" to="E31.622"/>
    <trip id="res_veh_int669" type="res_veh_int6_passenger" depart="2215.68" departLane="best" departSpeed="max" from="E31" to="E18.410"/>
    <trip id="res_veh_int670" type="res_veh_int6_passenger" depart="2216.40" departLane="best" departSpeed="max" from="E22" to="E30.558"/>
    <trip id="res_veh_int671" type="res_veh_int6_passenger" depart="2217.12" departLane="best" departSpeed="max" from="E18" to="E31.622"/>
    <trip id="res_veh_int672" type="res_veh_int6_passenger" depart="2217.84" departLane="best" departSpeed="max" from="E22" to="E18.410"/>
    <trip id="res_veh_int673" type="res_veh_int6_passenger" depart="2218.56" departLane="best" departSpeed="max" from="E22" to="E30.558"/>
    <trip id="res_veh_int674" type="res_veh_int6_passenger" depart="2219.28" departLane="best" departSpeed="max" from="E18" to="E22.488"/>
    <trip id="res_veh_int675" type="res_veh_int6_passenger" depart="2220.00" departLane="best" departSpeed="max" from="E31" to="E30.558"/>
    <trip id="res_veh_int676" type="res_veh_int6_passenger" depart="2220.72" departLane="best" departSpeed="max" from="E22" to="E30.558"/>
    <trip id="res_veh_int677" type="res_veh_int6_passenger" depart="2221.44" departLane="best" departSpeed="max" from="E18" to="E18.410"/>
    <trip id="res_veh_int678" type="res_veh_int6_passenger" depart="2222.16" departLane="best" departSpeed="max" from="E22" to="E30.558"/>
    <trip id="res_veh_int679" type="res_veh_int6_passenger" depart="2222.88" departLane="best" departSpeed="max" from="E18" to="E18.410"/>
    <trip id="res_veh_int681" type="res_veh_int6_passenger" depart="2224.32" departLane="best" departSpeed="max" from="E18" to="E31.622"/>
    <trip id="res_veh_int682" type="res_veh_int6_passenger" depart="2225.04" departLane="best" departSpeed="max" from="E31" to="E18.410"/>
    <trip id="res_veh_int684" type="res_veh_int6_passenger" depart="2226.48" departLane="best" departSpeed="max" from="E18" to="E18.410"/>
    <trip id="res_veh_int685" type="res_veh_int6_passenger" depart="2227.20" departLane="best" departSpeed="max" from="E31" to="E30.558"/>
    <trip id="res_veh_int687" type="res_veh_int6_passenger" depart="2228.64" departLane="best" departSpeed="max" from="E31" to="E18.410"/>
    <trip id="res_veh_int688" type="res_veh_int6_passenger" depart="2229.36" departLane="best" departSpeed="max" from="E18" to="E22.488"/>
    <trip id="res_veh_int689" type="res_veh_int6_passenger" depart="2230.08" departLane="best" departSpeed="max" from="E22" to="E22.488"/>
    <trip id="res_veh_int690" type="res_veh_int6_passenger" depart="2230.80" departLane="best" departSpeed="max" from="E30" to="E30.558"/>
    <trip id="res_veh_int691" type="res_veh_int6_passenger" depart="2231.52" departLane="best" departSpeed="max" from="E31" to="E18.410"/>
    <trip id="res_veh_int692" type="res_veh_int6_passenger" depart="2232.24" departLane="best" departSpeed="max" from="E22" to="E22.488"/>
    <trip id="res_veh_int693" type="res_veh_int6_passenger" depart="2232.96" departLane="best" departSpeed="max" from="E31" to="E18.410"/>
    <trip id="res_veh_int694" type="res_veh_int6_passenger" depart="2233.68" departLane="best" departSpeed="max" from="E18" to="E22.488"/>
    <trip id="res_veh_int695" type="res_veh_int6_passenger" depart="2234.40" departLane="best" departSpeed="max" from="E22" to="E22.488"/>
    <trip id="res_veh_int696" type="res_veh_int6_passenger" depart="2235.12" departLane="best" departSpeed="max" from="E18" to="E31.622"/>
    <trip id="res_veh_int698" type="res_veh_int6_passenger" depart="2236.56" departLane="best" departSpeed="max" from="E22" to="E18.410"/>
    <trip id="res_veh_int699" type="res_veh_int6_passenger" depart="2237.28" departLane="best" departSpeed="max" from="E31" to="E31.622"/>
    <trip id="res_veh_int6100" type="res_veh_int6_passenger" depart="2238.00" departLane="best" departSpeed="max" from="E31" to="E31.622"/>
    <trip id="res_veh_int6101" type="res_veh_int6_passenger" depart="2238.72" departLane="best" departSpeed="max" from="E31" to="E18.410"/>
    <trip id="res_veh_int6102" type="res_veh_int6_passenger" depart="2239.44" departLane="best" departSpeed="max" from="E22" to="E18.410"/>
    <trip id="res_veh_int6103" type="res_veh_int6_passenger" depart="2240.16" departLane="best" departSpeed="max" from="E22" to="E18.410"/>
    <trip id="res_veh_int6105" type="res_veh_int6_passenger" depart="2241.60" departLane="best" departSpeed="max" from="E18" to="E31.622"/>
    <trip id="res_veh_int6106" type="res_veh_int6_passenger" depart="2242.32" departLane="best" departSpeed="max" from="E22" to="E22.488"/>
    <trip id="res_veh_int6107" type="res_veh_int6_passenger" depart="2243.04" departLane="best" departSpeed="max" from="E31" to="E31.622"/>
    <trip id="res_veh_int6108" type="res_veh_int6_passenger" depart="2243.76" departLane="best" departSpeed="max" from="E22" to="E30.558"/>
    <trip id="res_veh_int6109" type="res_veh_int6_passenger" depart="2244.48" departLane="best" departSpeed="max" from="E18" to="E22.488"/>
    <trip id="res_veh_int6110" type="res_veh_int6_passenger" depart="2245.20" departLane="best" departSpeed="max" from="E31" to="E30.558"/>
    <trip id="res_veh_int6111" type="res_veh_int6_passenger" depart="2245.92" departLane="best" departSpeed="max" from="E22" to="E30.558"/>
    <trip id="res_veh_int6114" type="res_veh_int6_passenger" depart="2248.08" departLane="best" departSpeed="max" from="E18" to="E31.622"/>
    <trip id="res_veh_int6115" type="res_veh_int6_passenger" depart="2248.80" departLane="best" departSpeed="max" from="E18" to="E18.410"/>
    <trip id="res_veh_int6116" type="res_veh_int6_passenger" depart="2249.52" departLane="best" departSpeed="max" from="E22" to="E30.558"/>
    <trip id="res_veh_int6117" type="res_veh_int6_passenger" depart="2250.24" departLane="best" departSpeed="max" from="E18" to="E18.410"/>
    <trip id="res_veh_int6118" type="res_veh_int6_passenger" depart="2250.96" departLane="best" departSpeed="max" from="E31" to="E18.410"/>
    <trip id="res_veh_int6119" type="res_veh_int6_passenger" depart="2251.68" departLane="best" departSpeed="max" from="E22" to="E30.558"/>
    <trip id="res_veh_int6120" type="res_veh_int6_passenger" depart="2252.40" departLane="best" departSpeed="max" from="E22" to="E30.558"/>
    <trip id="res_veh_int6123" type="res_veh_int6_passenger" depart="2254.56" departLane="best" departSpeed="max" from="E18" to="E22.488"/>
    <trip id="res_veh_int6124" type="res_veh_int6_passenger" depart="2255.28" departLane="best" departSpeed="max" from="E30" to="E22.488"/>
    <trip id="res_veh_int6126" type="res_veh_int6_passenger" depart="2256.72" departLane="best" departSpeed="max" from="E18" to="E22.488"/>
    <trip id="res_veh_int6127" type="res_veh_int6_passenger" depart="2257.44" departLane="best" departSpeed="max" from="E31" to="E31.622"/>
    <trip id="res_veh_int6128" type="res_veh_int6_passenger" depart="2258.16" departLane="best" departSpeed="max" from="E18" to="E18.410"/>
    <trip id="res_veh_int6129" type="res_veh_int6_passenger" depart="2258.88" departLane="best" departSpeed="max" from="E18" to="E31.622"/>
    <trip id="res_veh_int6130" type="res_veh_int6_passenger" depart="2259.60" departLane="best" departSpeed="max" from="E31" to="E31.622"/>
    <trip id="res_veh_int6131" type="res_veh_int6_passenger" depart="2260.32" departLane="best" departSpeed="max" from="E22" to="E18.410"/>
    <trip id="res_veh_int6132" type="res_veh_int6_passenger" depart="2261.04" departLane="best" departSpeed="max" from="E31" to="E30.558"/>
    <trip id="res_veh_int6134" type="res_veh_int6_passenger" depart="2262.48" departLane="best" departSpeed="max" from="E22" to="E18.410"/>
    <trip id="res_veh_int6136" type="res_veh_int6_passenger" depart="2263.92" departLane="best" departSpeed="max" from="E30" to="E31.622"/>
    <trip id="res_veh_int6137" type="res_veh_int6_passenger" depart="2264.64" departLane="best" departSpeed="max" from="E18" to="E18.410"/>
    <trip id="res_veh_int6141" type="res_veh_int6_passenger" depart="2267.52" departLane="best" departSpeed="max" from="E22" to="E22.488"/>
    <trip id="res_veh_int6143" type="res_veh_int6_passenger" depart="2268.96" departLane="best" departSpeed="max" from="E31" to="E18.410"/>
    <trip id="res_veh_int6144" type="res_veh_int6_passenger" depart="2269.68" departLane="best" departSpeed="max" from="E22" to="E22.488"/>
    <trip id="res_veh_int6145" type="res_veh_int6_passenger" depart="2270.40" departLane="best" departSpeed="max" from="E18" to="E31.622"/>
    <trip id="res_veh_int6146" type="res_veh_int6_passenger" depart="2271.12" departLane="best" departSpeed="max" from="E22" to="E22.488"/>
    <trip id="res_veh_int6147" type="res_veh_int6_passenger" depart="2271.84" departLane="best" departSpeed="max" from="E30" to="E30.558"/>
    <trip id="res_veh_int6148" type="res_veh_int6_passenger" depart="2272.56" departLane="best" departSpeed="max" from="E22" to="E18.410"/>
    <trip id="res_veh_int6149" type="res_veh_int6_passenger" depart="2273.28" departLane="best" departSpeed="max" from="E18" to="E31.622"/>
    <trip id="res_veh_int6150" type="res_veh_int6_passenger" depart="2274.00" departLane="best" departSpeed="max" from="E31" to="E30.558"/>
    <trip id="res_veh_int6151" type="res_veh_int6_passenger" depart="2274.72" departLane="best" departSpeed="max" from="E31" to="E30.558"/>
    <trip id="res_veh_int6152" type="res_veh_int6_passenger" depart="2275.44" departLane="best" departSpeed="max" from="E18" to="E18.410"/>
    <trip id="res_veh_int6154" type="res_veh_int6_passenger" depart="2276.88" departLane="best" departSpeed="max" from="E31" to="E31.622"/>
    <trip id="res_veh_int6155" type="res_veh_int6_passenger" depart="2277.60" departLane="best" departSpeed="max" from="E31" to="E18.410"/>
    <trip id="res_veh_int6156" type="res_veh_int6_passenger" depart="2278.32" departLane="best" departSpeed="max" from="E18" to="E18.410"/>
    <trip id="res_veh_int6157" type="res_veh_int6_passenger" depart="2279.04" departLane="best" departSpeed="max" from="E31" to="E31.622"/>
    <trip id="res_veh_int6158" type="res_veh_int6_passenger" depart="2279.76" departLane="best" departSpeed="max" from="E22" to="E30.558"/>
    <trip id="res_veh_int6159" type="res_veh_int6_passenger" depart="2280.48" departLane="best" departSpeed="max" from="E18" to="E31.622"/>
    <trip id="res_veh_int6160" type="res_veh_int6_passenger" depart="2281.20" departLane="best" departSpeed="max" from="E31" to="E31.622"/>
    <trip id="res_veh_int6161" type="res_veh_int6_passenger" depart="2281.92" departLane="best" departSpeed="max" from="E31" to="E31.622"/>
    <trip id="res_veh_int6164" type="res_veh_int6_passenger" depart="2284.08" departLane="best" departSpeed="max" from="E31" to="E31.622"/>
    <trip id="res_veh_int6166" type="res_veh_int6_passenger" depart="2285.52" departLane="best" departSpeed="max" from="E31" to="E18.410"/>
    <trip id="res_veh_int6167" type="res_veh_int6_passenger" depart="2286.24" departLane="best" departSpeed="max" from="E31" to="E31.622"/>
    <trip id="res_veh_int6168" type="res_veh_int6_passenger" depart="2286.96" departLane="best" departSpeed="max" from="E18" to="E31.622"/>
    <trip id="res_veh_int6169" type="res_veh_int6_passenger" depart="2287.68" departLane="best" departSpeed="max" from="E22" to="E22.488"/>
    <trip id="res_veh_int6170" type="res_veh_int6_passenger" depart="2288.40" departLane="best" departSpeed="max" from="E31" to="E18.410"/>
    <trip id="res_veh_int6171" type="res_veh_int6_passenger" depart="2289.12" departLane="best" departSpeed="max" from="E18" to="E18.410"/>
    <trip id="res_veh_int6174" type="res_veh_int6_passenger" depart="2291.28" departLane="best" departSpeed="max" from="E22" to="E22.488"/>
    <trip id="res_veh_int6175" type="res_veh_int6_passenger" depart="2292.00" departLane="best" departSpeed="max" from="E31" to="E30.558"/>
    <trip id="res_veh_int6176" type="res_veh_int6_passenger" depart="2292.72" departLane="best" departSpeed="max" from="E31" to="E18.410"/>
    <trip id="res_veh_int6177" type="res_veh_int6_passenger" depart="2293.44" departLane="best" departSpeed="max" from="E31" to="E18.410"/>
    <trip id="res_veh_int6179" type="res_veh_int6_passenger" depart="2294.88" departLane="best" departSpeed="max" from="E18" to="E22.488"/>
    <trip id="res_veh_int6180" type="res_veh_int6_passenger" depart="2295.60" departLane="best" departSpeed="max" from="E30" to="E22.488"/>
    <trip id="res_veh_int6181" type="res_veh_int6_passenger" depart="2296.32" departLane="best" departSpeed="max" from="E22" to="E30.558"/>
    <trip id="res_veh_int6182" type="res_veh_int6_passenger" depart="2297.04" departLane="best" departSpeed="max" from="E22" to="E30.558"/>
    <trip id="res_veh_int6184" type="res_veh_int6_passenger" depart="2298.48" departLane="best" departSpeed="max" from="E18" to="E31.622"/>
    <trip id="res_veh_int6185" type="res_veh_int6_passenger" depart="2299.20" departLane="best" departSpeed="max" from="E22" to="E30.558"/>
    <trip id="res_veh_int6186" type="res_veh_int6_passenger" depart="2299.92" departLane="best" departSpeed="max" from="E30" to="E30.558"/>
    <trip id="res_veh_int6187" type="res_veh_int6_passenger" depart="2300.64" departLane="best" departSpeed="max" from="E22" to="E18.410"/>
    <trip id="res_veh_int6188" type="res_veh_int6_passenger" depart="2301.36" departLane="best" departSpeed="max" from="E30" to="E22.488"/>
    <trip id="res_veh_int6190" type="res_veh_int6_passenger" depart="2302.80" departLane="best" departSpeed="max" from="E30" to="E22.488"/>
    <trip id="res_veh_int6191" type="res_veh_int6_passenger" depart="2303.52" departLane="best" departSpeed="max" from="E22" to="E22.488"/>
    <trip id="res_veh_int6192" type="res_veh_int6_passenger" depart="2304.24" departLane="best" departSpeed="max" from="E22" to="E22.488"/>
    <trip id="res_veh_int6193" type="res_veh_int6_passenger" depart="2304.96" departLane="best" departSpeed="max" from="E18" to="E22.488"/>
    <trip id="res_veh_int6194" type="res_veh_int6_passenger" depart="2305.68" departLane="best" departSpeed="max" from="E31" to="E30.558"/>
    <trip id="res_veh_int6195" type="res_veh_int6_passenger" depart="2306.40" departLane="best" departSpeed="max" from="E31" to="E30.558"/>
    <trip id="res_veh_int6196" type="res_veh_int6_passenger" depart="2307.12" departLane="best" departSpeed="max" from="E22" to="E30.558"/>
    <trip id="res_veh_int6197" type="res_veh_int6_passenger" depart="2307.84" departLane="best" departSpeed="max" from="E18" to="E22.488"/>
    <trip id="res_veh_int6198" type="res_veh_int6_passenger" depart="2308.56" departLane="best" departSpeed="max" from="E22" to="E30.558"/>
    <trip id="res_veh_int6199" type="res_veh_int6_passenger" depart="2309.28" departLane="best" departSpeed="max" from="E22" to="E22.488"/>
    <trip id="res_veh_int6200" type="res_veh_int6_passenger" depart="2310.00" departLane="best" departSpeed="max" from="E22" to="E18.410"/>
    <trip id="res_veh_int6202" type="res_veh_int6_passenger" depart="2311.44" departLane="best" departSpeed="max" from="E31" to="E18.410"/>
    <trip id="res_veh_int6204" type="res_veh_int6_passenger" depart="2312.88" departLane="best" departSpeed="max" from="E22" to="E22.488"/>
    <trip id="res_veh_int6205" type="res_veh_int6_passenger" depart="2313.60" departLane="best" departSpeed="max" from="E31" to="E31.622"/>
    <trip id="res_veh_int6207" type="res_veh_int6_passenger" depart="2315.04" departLane="best" departSpeed="max" from="E18" to="E18.410"/>
    <trip id="res_veh_int6208" type="res_veh_int6_passenger" depart="2315.76" departLane="best" departSpeed="max" from="E18" to="E22.488"/>
    <trip id="res_veh_int6209" type="res_veh_int6_passenger" depart="2316.48" departLane="best" departSpeed="max" from="E31" to="E18.410"/>
    <trip id="res_veh_int6210" type="res_veh_int6_passenger" depart="2317.20" departLane="best" departSpeed="max" from="E22" to="E30.558"/>
    <trip id="res_veh_int6212" type="res_veh_int6_passenger" depart="2318.64" departLane="best" departSpeed="max" from="E22" to="E18.410"/>
    <trip id="res_veh_int6213" type="res_veh_int6_passenger" depart="2319.36" departLane="best" departSpeed="max" from="E22" to="E18.410"/>
    <trip id="res_veh_int6214" type="res_veh_int6_passenger" depart="2320.08" departLane="best" departSpeed="max" from="E30" to="E31.622"/>
    <trip id="res_veh_int6215" type="res_veh_int6_passenger" depart="2320.80" departLane="best" departSpeed="max" from="E18" to="E22.488"/>
    <trip id="res_veh_int6216" type="res_veh_int6_passenger" depart="2321.52" departLane="best" departSpeed="max" from="E18" to="E31.622"/>
    <trip id="res_veh_int6217" type="res_veh_int6_passenger" depart="2322.24" departLane="best" departSpeed="max" from="E22" to="E18.410"/>
    <trip id="res_veh_int6218" type="res_veh_int6_passenger" depart="2322.96" departLane="best" departSpeed="max" from="E18" to="E31.622"/>
    <trip id="res_veh_int6220" type="res_veh_int6_passenger" depart="2324.40" departLane="best" departSpeed="max" from="E30" to="E31.622"/>
    <trip id="res_veh_int6222" type="res_veh_int6_passenger" depart="2325.84" departLane="best" departSpeed="max" from="E31" to="E30.558"/>
    <trip id="res_veh_int6223" type="res_veh_int6_passenger" depart="2326.56" departLane="best" departSpeed="max" from="E30" to="E30.558"/>
    <trip id="res_veh_int6224" type="res_veh_int6_passenger" depart="2327.28" departLane="best" departSpeed="max" from="E31" to="E30.558"/>
    <trip id="res_veh_int6225" type="res_veh_int6_passenger" depart="2328.00" departLane="best" departSpeed="max" from="E31" to="E30.558"/>
    <trip id="res_veh_int6226" type="res_veh_int6_passenger" depart="2328.72" departLane="best" departSpeed="max" from="E22" to="E22.488"/>
    <trip id="res_veh_int6228" type="res_veh_int6_passenger" depart="2330.16" departLane="best" departSpeed="max" from="E31" to="E30.558"/>
    <trip id="res_veh_int6229" type="res_veh_int6_passenger" depart="2330.88" departLane="best" departSpeed="max" from="E22" to="E22.488"/>
    <trip id="res_veh_int6230" type="res_veh_int6_passenger" depart="2331.60" departLane="best" departSpeed="max" from="E18" to="E22.488"/>
    <trip id="res_veh_int6231" type="res_veh_int6_passenger" depart="2332.32" departLane="best" departSpeed="max" from="E18" to="E22.488"/>
    <trip id="res_veh_int6232" type="res_veh_int6_passenger" depart="2333.04" departLane="best" departSpeed="max" from="E22" to="E18.410"/>
    <trip id="res_veh_int6235" type="res_veh_int6_passenger" depart="2335.20" departLane="best" departSpeed="max" from="E22" to="E30.558"/>
    <trip id="res_veh_int6236" type="res_veh_int6_passenger" depart="2335.92" departLane="best" departSpeed="max" from="E22" to="E18.410"/>
    <trip id="res_veh_int6238" type="res_veh_int6_passenger" depart="2337.36" departLane="best" departSpeed="max" from="E22" to="E30.558"/>
    <trip id="res_veh_int6239" type="res_veh_int6_passenger" depart="2338.08" departLane="best" departSpeed="max" from="E31" to="E31.622"/>
    <trip id="res_veh_int6240" type="res_veh_int6_passenger" depart="2338.80" departLane="best" departSpeed="max" from="E22" to="E18.410"/>
    <trip id="res_veh_int6242" type="res_veh_int6_passenger" depart="2340.24" departLane="best" departSpeed="max" from="E31" to="E31.622"/>
    <trip id="res_veh_int6243" type="res_veh_int6_passenger" depart="2340.96" departLane="best" departSpeed="max" from="E22" to="E30.558"/>
    <trip id="res_veh_int6244" type="res_veh_int6_passenger" depart="2341.68" departLane="best" departSpeed="max" from="E22" to="E30.558"/>
    <trip id="res_veh_int6245" type="res_veh_int6_passenger" depart="2342.40" departLane="best" departSpeed="max" from="E18" to="E18.410"/>
    <trip id="res_veh_int6246" type="res_veh_int6_passenger" depart="2343.12" departLane="best" departSpeed="max" from="E22" to="E18.410"/>
    <trip id="res_veh_int6247" type="res_veh_int6_passenger" depart="2343.84" departLane="best" departSpeed="max" from="E22" to="E30.558"/>
    <trip id="res_veh_int6248" type="res_veh_int6_passenger" depart="2344.56" departLane="best" departSpeed="max" from="E22" to="E18.410"/>
    <trip id="res_veh_int6249" type="res_veh_int6_passenger" depart="2345.28" departLane="best" departSpeed="max" from="E22" to="E18.410"/>
    <trip id="res_veh_int6250" type="res_veh_int6_passenger" depart="2346.00" departLane="best" departSpeed="max" from="E22" to="E18.410"/>
    <trip id="res_veh_int6251" type="res_veh_int6_passenger" depart="2346.72" departLane="best" departSpeed="max" from="E22" to="E30.558"/>
    <trip id="res_veh_int6253" type="res_veh_int6_passenger" depart="2348.16" departLane="best" departSpeed="max" from="E18" to="E22.488"/>