<?xml version="1.0" encoding="UTF-8"?>

<!-- generated on 2025-08-02 13:30:26.536954 by randomTrips.py UNKNOWN
<configuration>
    <net-file value="osm.net.xml.gz"/>
    <weights-prefix value="random_edge_priority_interval_8"/>
    <output-trip-file value="osm.res_bike.interval_8.trips.xml"/>
    <prefix value="res_bike_int8"/>
    <trip-attributes value="departLane='best'"/>
    <fringe-start-attributes value="departSpeed='max'"/>
    <vehicle-class value="bicycle"/>
    <vclass value="bicycle"/>
    <remove-loops value="True"/>
    <validate value="True"/>
    <begin value="2888.0"/>
    <end value="3248.0"/>
    <insertion-rate value="70.0"/>
</configuration>
-->

<!-- generated on 2025-08-02 13:30:26 by Eclipse SUMO duarouter Version 1.22.0
<duarouterConfiguration xmlns:xsi="http://www.w3.org/2001/XMLSchema-instance" xsi:noNamespaceSchemaLocation="http://sumo.dlr.de/xsd/duarouterConfiguration.xsd">

    <input>
        <net-file value="osm.net.xml.gz"/>
        <route-files value="osm.res_bike.interval_8.trips.xml"/>
    </input>

    <output>
        <output-file value="osm.res_bike.interval_8.trips.xml.tmp"/>
        <alternatives-output value="NUL"/>
        <write-trips value="true"/>
    </output>

    <processing>
        <remove-loops value="true"/>
    </processing>

    <time>
        <begin value="2888.0"/>
        <end value="3248.0"/>
    </time>

    <report>
        <no-warnings value="true"/>
        <ignore-errors value="true"/>
        <no-step-log value="true"/>
    </report>

</duarouterConfiguration>
-->

<routes xmlns:xsi="http://www.w3.org/2001/XMLSchema-instance" xsi:noNamespaceSchemaLocation="http://sumo.dlr.de/xsd/routes_file.xsd">
    <vType id="res_bike_int8_bicycle" vClass="bicycle"/>
    <trip id="res_bike_int80" type="res_bike_int8_bicycle" depart="2888.00" departLane="best" departSpeed="max" from="E31" to="E18.410"/>
    <trip id="res_bike_int81" type="res_bike_int8_bicycle" depart="2939.43" departLane="best" departSpeed="max" from="E22" to="E18.410"/>
    <trip id="res_bike_int82" type="res_bike_int8_bicycle" depart="2990.86" departLane="best" departSpeed="max" from="E31" to="E30.558"/>
    <trip id="res_bike_int83" type="res_bike_int8_bicycle" depart="3042.29" departLane="best" departSpeed="max" from="E31" to="E18.410"/>
    <trip id="res_bike_int85" type="res_bike_int8_bicycle" depart="3145.14" departLane="best" departSpeed="max" from="E22" to="E30.558"/>
    <trip id="res_bike_int86" type="res_bike_int8_bicycle" depart="3196.57" departLane="best" departSpeed="max" from="E18" to="E18.410"/>
</routes>
