<?xml version="1.0" encoding="UTF-8"?>

<!-- generated on 2025-08-02 13:30:02.058275 by randomTrips.py UNKNOWN
<configuration>
    <net-file value="osm.net.xml.gz"/>
    <weights-prefix value="random_edge_priority_interval_6"/>
    <output-trip-file value="osm.res_motorcycle.interval_6.trips.xml"/>
    <prefix value="res_motorcycle_int6"/>
    <trip-attributes value="departLane='best'"/>
    <fringe-start-attributes value="departSpeed='max'"/>
    <vehicle-class value="motorcycle"/>
    <vclass value="motorcycle"/>
    <remove-loops value="True"/>
    <validate value="True"/>
    <begin value="2166.0"/>
    <end value="2526.0"/>
    <insertion-rate value="7000.0"/>
</configuration>
-->

<!-- generated on 2025-08-02 13:30:01 by Eclipse SUMO duarouter Version 1.22.0
<duarouterConfiguration xmlns:xsi="http://www.w3.org/2001/XMLSchema-instance" xsi:noNamespaceSchemaLocation="http://sumo.dlr.de/xsd/duarouterConfiguration.xsd">

    <input>
        <net-file value="osm.net.xml.gz"/>
        <route-files value="osm.res_motorcycle.interval_6.trips.xml"/>
    </input>

    <output>
        <output-file value="osm.res_motorcycle.interval_6.trips.xml.tmp"/>
        <alternatives-output value="NUL"/>
        <write-trips value="true"/>
    </output>

    <processing>
        <remove-loops value="true"/>
    </processing>

    <time>
        <begin value="2166.0"/>
        <end value="2526.0"/>
    </time>

    <report>
        <no-warnings value="true"/>
        <ignore-errors value="true"/>
        <no-step-log value="true"/>
    </report>

</duarouterConfiguration>
-->

<routes xmlns:xsi="http://www.w3.org/2001/XMLSchema-instance" xsi:noNamespaceSchemaLocation="http://sumo.dlr.de/xsd/routes_file.xsd">
    <vType id="res_motorcycle_int6_motorcycle" vClass="motorcycle"/>
    <trip id="res_motorcycle_int60" type="res_motorcycle_int6_motorcycle" depart="2166.00" departLane="best" departSpeed="max" from="E22" to="E18.410"/>
    <trip id="res_motorcycle_int61" type="res_motorcycle_int6_motorcycle" depart="2166.51" departLane="best" departSpeed="max" from="E18" to="E18.410"/>
    <trip id="res_motorcycle_int62" type="res_motorcycle_int6_motorcycle" depart="2167.03" departLane="best" departSpeed="max" from="E30" to="E30.558"/>
    <trip id="res_motorcycle_int63" type="res_motorcycle_int6_motorcycle" depart="2167.54" departLane="best" departSpeed="max" from="E31" to="E18.410"/>
    <trip id="res_motorcycle_int64" type="res_motorcycle_int6_motorcycle" depart="2168.06" departLane="best" departSpeed="max" from="E22" to="E18.410"/>
    <trip id="res_motorcycle_int66" type="res_motorcycle_int6_motorcycle" depart="2169.09" departLane="best" departSpeed="max" from="E18" to="E18.410"/>
    <trip id="res_motorcycle_int67" type="res_motorcycle_int6_motorcycle" depart="2169.60" departLane="best" departSpeed="max" from="E22" to="E30.558"/>
    <trip id="res_motorcycle_int69" type="res_motorcycle_int6_motorcycle" depart="2170.63" departLane="best" departSpeed="max" from="E31" to="E18.410"/>
    <trip id="res_motorcycle_int610" type="res_motorcycle_int6_motorcycle" depart="2171.14" departLane="best" departSpeed="max" from="E31" to="E30.558"/>
    <trip id="res_motorcycle_int611" type="res_motorcycle_int6_motorcycle" depart="2171.66" departLane="best" departSpeed="max" from="E22" to="E18.410"/>
    <trip id="res_motorcycle_int613" type="res_motorcycle_int6_motorcycle" depart="2172.69" departLane="best" departSpeed="max" from="E18" to="E18.410"/>
    <trip id="res_motorcycle_int614" type="res_motorcycle_int6_motorcycle" depart="2173.20" departLane="best" departSpeed="max" from="E31" to="E30.558"/>
    <trip id="res_motorcycle_int615" type="res_motorcycle_int6_motorcycle" depart="2173.71" departLane="best" departSpeed="max" from="E31" to="E30.558"/>
    <trip id="res_motorcycle_int617" type="res_motorcycle_int6_motorcycle" depart="2174.74" departLane="best" departSpeed="max" from="E22" to="E30.558"/>
    <trip id="res_motorcycle_int618" type="res_motorcycle_int6_motorcycle" depart="2175.26" departLane="best" departSpeed="max" from="E31" to="E30.558"/>
    <trip id="res_motorcycle_int619" type="res_motorcycle_int6_motorcycle" depart="2175.77" departLane="best" departSpeed="max" from="E31" to="E30.558"/>
    <trip id="res_motorcycle_int621" type="res_motorcycle_int6_motorcycle" depart="2176.80" departLane="best" departSpeed="max" from="E18" to="E22.488"/>
    <trip id="res_motorcycle_int622" type="res_motorcycle_int6_motorcycle" depart="2177.31" departLane="best" departSpeed="max" from="E18" to="E18.410"/>
    <trip id="res_motorcycle_int623" type="res_motorcycle_int6_motorcycle" depart="2177.83" departLane="best" departSpeed="max" from="E18" to="E22.488"/>
    <trip id="res_motorcycle_int624" type="res_motorcycle_int6_motorcycle" depart="2178.34" departLane="best" departSpeed="max" from="E22" to="E22.488"/>
    <trip id="res_motorcycle_int625" type="res_motorcycle_int6_motorcycle" depart="2178.86" departLane="best" departSpeed="max" from="E22" to="E18.410"/>
    <trip id="res_motorcycle_int626" type="res_motorcycle_int6_motorcycle" depart="2179.37" departLane="best" departSpeed="max" from="E18" to="E31.622"/>
    <trip id="res_motorcycle_int627" type="res_motorcycle_int6_motorcycle" depart="2179.89" departLane="best" departSpeed="max" from="E22" to="E30.558"/>
    <trip id="res_motorcycle_int629" type="res_motorcycle_int6_motorcycle" depart="2180.91" departLane="best" departSpeed="max" from="E18" to="E22.488"/>
    <trip id="res_motorcycle_int630" type="res_motorcycle_int6_motorcycle" depart="2181.43" departLane="best" departSpeed="max" from="E31" to="E30.558"/>
    <trip id="res_motorcycle_int631" type="res_motorcycle_int6_motorcycle" depart="2181.94" departLane="best" departSpeed="max" from="E22" to="E30.558"/>
    <trip id="res_motorcycle_int632" type="res_motorcycle_int6_motorcycle" depart="2182.46" departLane="best" departSpeed="max" from="E31" to="E31.622"/>
    <trip id="res_motorcycle_int633" type="res_motorcycle_int6_motorcycle" depart="2182.97" departLane="best" departSpeed="max" from="E18" to="E18.410"/>
    <trip id="res_motorcycle_int634" type="res_motorcycle_int6_motorcycle" depart="2183.49" departLane="best" departSpeed="max" from="E22" to="E22.488"/>
    <trip id="res_motorcycle_int635" type="res_motorcycle_int6_motorcycle" depart="2184.00" departLane="best" departSpeed="max" from="E18" to="E31.622"/>
    <trip id="res_motorcycle_int637" type="res_motorcycle_int6_motorcycle" depart="2185.03" departLane="best" departSpeed="max" from="E22" to="E22.488"/>
    <trip id="res_motorcycle_int639" type="res_motorcycle_int6_motorcycle" depart="2186.06" departLane="best" departSpeed="max" from="E18" to="E18.410"/>
    <trip id="res_motorcycle_int640" type="res_motorcycle_int6_motorcycle" depart="2186.57" departLane="best" departSpeed="max" from="E22" to="E22.488"/>
    <trip id="res_motorcycle_int642" type="res_motorcycle_int6_motorcycle" depart="2187.60" departLane="best" departSpeed="max" from="E22" to="E18.410"/>
    <trip id="res_motorcycle_int643" type="res_motorcycle_int6_motorcycle" depart="2188.11" departLane="best" departSpeed="max" from="E31" to="E30.558"/>
    <trip id="res_motorcycle_int644" type="res_motorcycle_int6_motorcycle" depart="2188.63" departLane="best" departSpeed="max" from="E18" to="E18.410"/>
    <trip id="res_motorcycle_int647" type="res_motorcycle_int6_motorcycle" depart="2190.17" departLane="best" departSpeed="max" from="E18" to="E22.488"/>
    <trip id="res_motorcycle_int648" type="res_motorcycle_int6_motorcycle" depart="2190.69" departLane="best" departSpeed="max" from="E31" to="E30.558"/>
    <trip id="res_motorcycle_int649" type="res_motorcycle_int6_motorcycle" depart="2191.20" departLane="best" departSpeed="max" from="E31" to="E31.622"/>
    <trip id="res_motorcycle_int651" type="res_motorcycle_int6_motorcycle" depart="2192.23" departLane="best" departSpeed="max" from="E30" to="E30.558"/>
    <trip id="res_motorcycle_int653" type="res_motorcycle_int6_motorcycle" depart="2193.26" departLane="best" departSpeed="max" from="E18" to="E22.488"/>
    <trip id="res_motorcycle_int656" type="res_motorcycle_int6_motorcycle" depart="2194.80" departLane="best" departSpeed="max" from="E22" to="E18.410"/>
    <trip id="res_motorcycle_int657" type="res_motorcycle_int6_motorcycle" depart="2195.31" departLane="best" departSpeed="max" from="E31" to="E31.622"/>
    <trip id="res_motorcycle_int658" type="res_motorcycle_int6_motorcycle" depart="2195.83" departLane="best" departSpeed="max" from="E22" to="E30.558"/>
    <trip id="res_motorcycle_int659" type="res_motorcycle_int6_motorcycle" depart="2196.34" departLane="best" departSpeed="max" from="E22" to="E18.410"/>
    <trip id="res_motorcycle_int660" type="res_motorcycle_int6_motorcycle" depart="2196.86" departLane="best" departSpeed="max" from="E31" to="E30.558"/>
    <trip id="res_motorcycle_int661" type="res_motorcycle_int6_motorcycle" depart="2197.37" departLane="best" departSpeed="max" from="E31" to="E30.558"/>
    <trip id="res_motorcycle_int662" type="res_motorcycle_int6_motorcycle" depart="2197.89" departLane="best" departSpeed="max" from="E18" to="E22.488"/>
    <trip id="res_motorcycle_int663" type="res_motorcycle_int6_motorcycle" depart="2198.40" departLane="best" departSpeed="max" from="E18" to="E31.622"/>
    <trip id="res_motorcycle_int664" type="res_motorcycle_int6_motorcycle" depart="2198.91" departLane="best" departSpeed="max" from="E31" to="E31.622"/>
    <trip id="res_motorcycle_int665" type="res_motorcycle_int6_motorcycle" depart="2199.43" departLane="best" departSpeed="max" from="E22" to="E18.410"/>
    <trip id="res_motorcycle_int666" type="res_motorcycle_int6_motorcycle" depart="2199.94" departLane="best" departSpeed="max" from="E31" to="E31.622"/>
    <trip id="res_motorcycle_int667" type="res_motorcycle_int6_motorcycle" depart="2200.46" departLane="best" departSpeed="max" from="E18" to="E22.488"/>
    <trip id="res_motorcycle_int668" type="res_motorcycle_int6_motorcycle" depart="2200.97" departLane="best" departSpeed="max" from="E18" to="E31.622"/>
    <trip id="res_motorcycle_int669" type="res_motorcycle_int6_motorcycle" depart="2201.49" departLane="best" departSpeed="max" from="E31" to="E18.410"/>
    <trip id="res_motorcycle_int670" type="res_motorcycle_int6_motorcycle" depart="2202.00" departLane="best" departSpeed="max" from="E22" to="E30.558"/>
    <trip id="res_motorcycle_int671" type="res_motorcycle_int6_motorcycle" depart="2202.51" departLane="best" departSpeed="max" from="E18" to="E31.622"/>
    <trip id="res_motorcycle_int672" type="res_motorcycle_int6_motorcycle" depart="2203.03" departLane="best" departSpeed="max" from="E22" to="E18.410"/>
    <trip id="res_motorcycle_int673" type="res_motorcycle_int6_motorcycle" depart="2203.54" departLane="best" departSpeed="max" from="E22" to="E30.558"/>
    <trip id="res_motorcycle_int674" type="res_motorcycle_int6_motorcycle" depart="2204.06" departLane="best" departSpeed="max" from="E18" to="E22.488"/>
    <trip id="res_motorcycle_int675" type="res_motorcycle_int6_motorcycle" depart="2204.57" departLane="best" departSpeed="max" from="E31" to="E30.558"/>
    <trip id="res_motorcycle_int676" type="res_motorcycle_int6_motorcycle" depart="2205.09" departLane="best" departSpeed="max" from="E22" to="E30.558"/>
    <trip id="res_motorcycle_int677" type="res_motorcycle_int6_motorcycle" depart="2205.60" departLane="best" departSpeed="max" from="E18" to="E18.410"/>
    <trip id="res_motorcycle_int678" type="res_motorcycle_int6_motorcycle" depart="2206.11" departLane="best" departSpeed="max" from="E22" to="E30.558"/>
    <trip id="res_motorcycle_int679" type="res_motorcycle_int6_motorcycle" depart="2206.63" departLane="best" departSpeed="max" from="E18" to="E18.410"/>
    <trip id="res_motorcycle_int681" type="res_motorcycle_int6_motorcycle" depart="2207.66" departLane="best" departSpeed="max" from="E18" to="E31.622"/>
    <trip id="res_motorcycle_int682" type="res_motorcycle_int6_motorcycle" depart="2208.17" departLane="best" departSpeed="max" from="E31" to="E18.410"/>
    <trip id="res_motorcycle_int684" type="res_motorcycle_int6_motorcycle" depart="2209.20" departLane="best" departSpeed="max" from="E18" to="E18.410"/>
    <trip id="res_motorcycle_int685" type="res_motorcycle_int6_motorcycle" depart="2209.71" departLane="best" departSpeed="max" from="E31" to="E30.558"/>
    <trip id="res_motorcycle_int687" type="res_motorcycle_int6_motorcycle" depart="2210.74" departLane="best" departSpeed="max" from="E31" to="E18.410"/>
    <trip id="res_motorcycle_int688" type="res_motorcycle_int6_motorcycle" depart="2211.26" departLane="best" departSpeed="max" from="E18" to="E22.488"/>
    <trip id="res_motorcycle_int689" type="res_motorcycle_int6_motorcycle" depart="2211.77" departLane="best" departSpeed="max" from="E22" to="E22.488"/>
    <trip id="res_motorcycle_int690" type="res_motorcycle_int6_motorcycle" depart="2212.29" departLane="best" departSpeed="max" from="E30" to="E30.558"/>
    <trip id="res_motorcycle_int691" type="res_motorcycle_int6_motorcycle" depart="2212.80" departLane="best" departSpeed="max" from="E31" to="E18.410"/>
    <trip id="res_motorcycle_int692" type="res_motorcycle_int6_motorcycle" depart="2213.31" departLane="best" departSpeed="max" from="E22" to="E22.488"/>
    <trip id="res_motorcycle_int693" type="res_motorcycle_int6_motorcycle" depart="2213.83" departLane="best" departSpeed="max" from="E31" to="E18.410"/>
    <trip id="res_motorcycle_int694" type="res_motorcycle_int6_motorcycle" depart="2214.34" departLane="best" departSpeed="max" from="E18" to="E22.488"/>
    <trip id="res_motorcycle_int695" type="res_motorcycle_int6_motorcycle" depart="2214.86" departLane="best" departSpeed="max" from="E22" to="E22.488"/>
    <trip id="res_motorcycle_int696" type="res_motorcycle_int6_motorcycle" depart="2215.37" departLane="best" departSpeed="max" from="E18" to="E31.622"/>
    <trip id="res_motorcycle_int698" type="res_motorcycle_int6_motorcycle" depart="2216.40" departLane="best" departSpeed="max" from="E22" to="E18.410"/>
    <trip id="res_motorcycle_int699" type="res_motorcycle_int6_motorcycle" depart="2216.91" departLane="best" departSpeed="max" from="E31" to="E31.622"/>
    <trip id="res_motorcycle_int6100" type="res_motorcycle_int6_motorcycle" depart="2217.43" departLane="best" departSpeed="max" from="E31" to="E31.622"/>
    <trip id="res_motorcycle_int6101" type="res_motorcycle_int6_motorcycle" depart="2217.94" departLane="best" departSpeed="max" from="E31" to="E18.410"/>
    <trip id="res_motorcycle_int6102" type="res_motorcycle_int6_motorcycle" depart="2218.46" departLane="best" departSpeed="max" from="E22" to="E18.410"/>
    <trip id="res_motorcycle_int6103" type="res_motorcycle_int6_motorcycle" depart="2218.97" departLane="best" departSpeed="max" from="E22" to="E18.410"/>
    <trip id="res_motorcycle_int6105" type="res_motorcycle_int6_motorcycle" depart="2220.00" departLane="best" departSpeed="max" from="E18" to="E31.622"/>
    <trip id="res_motorcycle_int6106" type="res_motorcycle_int6_motorcycle" depart="2220.51" departLane="best" departSpeed="max" from="E22" to="E22.488"/>
    <trip id="res_motorcycle_int6107" type="res_motorcycle_int6_motorcycle" depart="2221.03" departLane="best" departSpeed="max" from="E31" to="E31.622"/>
    <trip id="res_motorcycle_int6108" type="res_motorcycle_int6_motorcycle" depart="2221.54" departLane="best" departSpeed="max" from="E22" to="E30.558"/>
    <trip id="res_motorcycle_int6109" type="res_motorcycle_int6_motorcycle" depart="2222.06" departLane="best" departSpeed="max" from="E18" to="E22.488"/>
    <trip id="res_motorcycle_int6110" type="res_motorcycle_int6_motorcycle" depart="2222.57" departLane="best" departSpeed="max" from="E31" to="E30.558"/>
    <trip id="res_motorcycle_int6111" type="res_motorcycle_int6_motorcycle" depart="2223.09" departLane="best" departSpeed="max" from="E22" to="E30.558"/>
    <trip id="res_motorcycle_int6114" type="res_motorcycle_int6_motorcycle" depart="2224.63" departLane="best" departSpeed="max" from="E18" to="E31.622"/>
    <trip id="res_motorcycle_int6115" type="res_motorcycle_int6_motorcycle" depart="2225.14" departLane="best" departSpeed="max" from="E18" to="E18.410"/>
    <trip id="res_motorcycle_int6116" type="res_motorcycle_int6_motorcycle" depart="2225.66" departLane="best" departSpeed="max" from="E22" to="E30.558"/>
    <trip id="res_motorcycle_int6117" type="res_motorcycle_int6_motorcycle" depart="2226.17" departLane="best" departSpeed="max" from="E18" to="E18.410"/>
    <trip id="res_motorcycle_int6118" type="res_motorcycle_int6_motorcycle" depart="2226.69" departLane="best" departSpeed="max" from="E31" to="E18.410"/>
    <trip id="res_motorcycle_int6119" type="res_motorcycle_int6_motorcycle" depart="2227.20" departLane="best" departSpeed="max" from="E22" to="E30.558"/>
    <trip id="res_motorcycle_int6120" type="res_motorcycle_int6_motorcycle" depart="2227.71" departLane="best" departSpeed="max" from="E22" to="E30.558"/>
    <trip id="res_motorcycle_int6123" type="res_motorcycle_int6_motorcycle" depart="2229.26" departLane="best" departSpeed="max" from="E18" to="E22.488"/>
    <trip id="res_motorcycle_int6124" type="res_motorcycle_int6_motorcycle" depart="2229.77" departLane="best" departSpeed="max" from="E30" to="E22.488"/>
    <trip id="res_motorcycle_int6126" type="res_motorcycle_int6_motorcycle" depart="2230.80" departLane="best" departSpeed="max" from="E18" to="E22.488"/>
    <trip id="res_motorcycle_int6127" type="res_motorcycle_int6_motorcycle" depart="2231.31" departLane="best" departSpeed="max" from="E31" to="E31.622"/>
    <trip id="res_motorcycle_int6128" type="res_motorcycle_int6_motorcycle" depart="2231.83" departLane="best" departSpeed="max" from="E18" to="E18.410"/>
    <trip id="res_motorcycle_int6129" type="res_motorcycle_int6_motorcycle" depart="2232.34" departLane="best" departSpeed="max" from="E18" to="E31.622"/>
    <trip id="res_motorcycle_int6130" type="res_motorcycle_int6_motorcycle" depart="2232.86" departLane="best" departSpeed="max" from="E31" to="E31.622"/>
    <trip id="res_motorcycle_int6131" type="res_motorcycle_int6_motorcycle" depart="2233.37" departLane="best" departSpeed="max" from="E22" to="E18.410"/>
    <trip id="res_motorcycle_int6132" type="res_motorcycle_int6_motorcycle" depart="2233.89" departLane="best" departSpeed="max" from="E31" to="E30.558"/>
    <trip id="res_motorcycle_int6134" type="res_motorcycle_int6_motorcycle" depart="2234.91" departLane="best" departSpeed="max" from="E22" to="E18.410"/>
    <trip id="res_motorcycle_int6136" type="res_motorcycle_int6_motorcycle" depart="2235.94" departLane="best" departSpeed="max" from="E30" to="E31.622"/>
    <trip id="res_motorcycle_int6137" type="res_motorcycle_int6_motorcycle" depart="2236.46" departLane="best" departSpeed="max" from="E18" to="E18.410"/>
    <trip id="res_motorcycle_int6141" type="res_motorcycle_int6_motorcycle" depart="2238.51" departLane="best" departSpeed="max" from="E22" to="E22.488"/>
    <trip id="res_motorcycle_int6143" type="res_motorcycle_int6_motorcycle" depart="2239.54" departLane="best" departSpeed="max" from="E31" to="E18.410"/>
    <trip id="res_motorcycle_int6144" type="res_motorcycle_int6_motorcycle" depart="2240.06" departLane="best" departSpeed="max" from="E22" to="E22.488"/>
    <trip id="res_motorcycle_int6145" type="res_motorcycle_int6_motorcycle" depart="2240.57" departLane="best" departSpeed="max" from="E18" to="E31.622"/>
    <trip id="res_motorcycle_int6146" type="res_motorcycle_int6_motorcycle" depart="2241.09" departLane="best" departSpeed="max" from="E22" to="E22.488"/>
    <trip id="res_motorcycle_int6147" type="res_motorcycle_int6_motorcycle" depart="2241.60" departLane="best" departSpeed="max" from="E30" to="E30.558"/>
    <trip id="res_motorcycle_int6148" type="res_motorcycle_int6_motorcycle" depart="2242.11" departLane="best" departSpeed="max" from="E22" to="E18.410"/>
    <trip id="res_motorcycle_int6149" type="res_motorcycle_int6_motorcycle" depart="2242.63" departLane="best" departSpeed="max" from="E18" to="E31.622"/>
    <trip id="res_motorcycle_int6150" type="res_motorcycle_int6_motorcycle" depart="2243.14" departLane="best" departSpeed="max" from="E31" to="E30.558"/>
    <trip id="res_motorcycle_int6151" type="res_motorcycle_int6_motorcycle" depart="2243.66" departLane="best" departSpeed="max" from="E31" to="E30.558"/>
    <trip id="res_motorcycle_int6152" type="res_motorcycle_int6_motorcycle" depart="2244.17" departLane="best" departSpeed="max" from="E18" to="E18.410"/>
    <trip id="res_motorcycle_int6154" type="res_motorcycle_int6_motorcycle" depart="2245.20" departLane="best" departSpeed="max" from="E31" to="E31.622"/>
    <trip id="res_motorcycle_int6155" type="res_motorcycle_int6_motorcycle" depart="2245.71" departLane="best" departSpeed="max" from="E31" to="E18.410"/>
    <trip id="res_motorcycle_int6156" type="res_motorcycle_int6_motorcycle" depart="2246.23" departLane="best" departSpeed="max" from="E18" to="E18.410"/>
    <trip id="res_motorcycle_int6157" type="res_motorcycle_int6_motorcycle" depart="2246.74" departLane="best" departSpeed="max" from="E31" to="E31.622"/>
    <trip id="res_motorcycle_int6158" type="res_motorcycle_int6_motorcycle" depart="2247.26" departLane="best" departSpeed="max" from="E22" to="E30.558"/>
    <trip id="res_motorcycle_int6159" type="res_motorcycle_int6_motorcycle" depart="2247.77" departLane="best" departSpeed="max" from="E18" to="E31.622"/>
    <trip id="res_motorcycle_int6160" type="res_motorcycle_int6_motorcycle" depart="2248.29" departLane="best" departSpeed="max" from="E31" to="E31.622"/>
    <trip id="res_motorcycle_int6161" type="res_motorcycle_int6_motorcycle" depart="2248.80" departLane="best" departSpeed="max" from="E31" to="E31.622"/>
    <trip id="res_motorcycle_int6164" type="res_motorcycle_int6_motorcycle" depart="2250.34" departLane="best" departSpeed="max" from="E31" to="E31.622"/>
    <trip id="res_motorcycle_int6166" type="res_motorcycle_int6_motorcycle" depart="2251.37" departLane="best" departSpeed="max" from="E31" to="E18.410"/>
    <trip id="res_motorcycle_int6167" type="res_motorcycle_int6_motorcycle" depart="2251.89" departLane="best" departSpeed="max" from="E31" to="E31.622"/>
    <trip id="res_motorcycle_int6168" type="res_motorcycle_int6_motorcycle" depart="2252.40" departLane="best" departSpeed="max" from="E18" to="E31.622"/>
    <trip id="res_motorcycle_int6169" type="res_motorcycle_int6_motorcycle" depart="2252.91" departLane="best" departSpeed="max" from="E22" to="E22.488"/>
    <trip id="res_motorcycle_int6170" type="res_motorcycle_int6_motorcycle" depart="2253.43" departLane="best" departSpeed="max" from="E31" to="E18.410"/>
    <trip id="res_motorcycle_int6171" type="res_motorcycle_int6_motorcycle" depart="2253.94" departLane="best" departSpeed="max" from="E18" to="E18.410"/>
    <trip id="res_motorcycle_int6174" type="res_motorcycle_int6_motorcycle" depart="2255.49" departLane="best" departSpeed="max" from="E22" to="E22.488"/>
    <trip id="res_motorcycle_int6175" type="res_motorcycle_int6_motorcycle" depart="2256.00" departLane="best" departSpeed="max" from="E31" to="E30.558"/>
    <trip id="res_motorcycle_int6176" type="res_motorcycle_int6_motorcycle" depart="2256.51" departLane="best" departSpeed="max" from="E31" to="E18.410"/>
    <trip id="res_motorcycle_int6177" type="res_motorcycle_int6_motorcycle" depart="2257.03" departLane="best" departSpeed="max" from="E31" to="E18.410"/>
    <trip id="res_motorcycle_int6179" type="res_motorcycle_int6_motorcycle" depart="2258.06" departLane="best" departSpeed="max" from="E18" to="E22.488"/>
    <trip id="res_motorcycle_int6180" type="res_motorcycle_int6_motorcycle" depart="2258.57" departLane="best" departSpeed="max" from="E30" to="E22.488"/>
    <trip id="res_motorcycle_int6181" type="res_motorcycle_int6_motorcycle" depart="2259.09" departLane="best" departSpeed="max" from="E22" to="E30.558"/>
    <trip id="res_motorcycle_int6182" type="res_motorcycle_int6_motorcycle" depart="2259.60" departLane="best" departSpeed="max" from="E22" to="E30.558"/>
    <trip id="res_motorcycle_int6184" type="res_motorcycle_int6_motorcycle" depart="2260.63" departLane="best" departSpeed="max" from="E18" to="E31.622"/>
    <trip id="res_motorcycle_int6185" type="res_motorcycle_int6_motorcycle" depart="2261.14" departLane="best" departSpeed="max" from="E22" to="E30.558"/>
    <trip id="res_motorcycle_int6186" type="res_motorcycle_int6_motorcycle" depart="2261.66" departLane="best" departSpeed="max" from="E30" to="E30.558"/>
    <trip id="res_motorcycle_int6187" type="res_motorcycle_int6_motorcycle" depart="2262.17" departLane="best" departSpeed="max" from="E22" to="E18.410"/>
    <trip id="res_motorcycle_int6188" type="res_motorcycle_int6_motorcycle" depart="2262.69" departLane="best" departSpeed="max" from="E30" to="E22.488"/>
    <trip id="res_motorcycle_int6190" type="res_motorcycle_int6_motorcycle" depart="2263.71" departLane="best" departSpeed="max" from="E30" to="E22.488"/>
    <trip id="res_motorcycle_int6191" type="res_motorcycle_int6_motorcycle" depart="2264.23" departLane="best" departSpeed="max" from="E22" to="E22.488"/>
    <trip id="res_motorcycle_int6192" type="res_motorcycle_int6_motorcycle" depart="2264.74" departLane="best" departSpeed="max" from="E22" to="E22.488"/>
    <trip id="res_motorcycle_int6193" type="res_motorcycle_int6_motorcycle" depart="2265.26" departLane="best" departSpeed="max" from="E18" to="E22.488"/>
    <trip id="res_motorcycle_int6194" type="res_motorcycle_int6_motorcycle" depart="2265.77" departLane="best" departSpeed="max" from="E31" to="E30.558"/>
    <trip id="res_motorcycle_int6195" type="res_motorcycle_int6_motorcycle" depart="2266.29" departLane="best" departSpeed="max" from="E31" to="E30.558"/>
    <trip id="res_motorcycle_int6196" type="res_motorcycle_int6_motorcycle" depart="2266.80" departLane="best" departSpeed="max" from="E22" to="E30.558"/>
    <trip id="res_motorcycle_int6197" type="res_motorcycle_int6_motorcycle" depart="2267.31" departLane="best" departSpeed="max" from="E18" to="E22.488"/>
    <trip id="res_motorcycle_int6198" type="res_motorcycle_int6_motorcycle" depart="2267.83" departLane="best" departSpeed="max" from="E22" to="E30.558"/>
    <trip id="res_motorcycle_int6199" type="res_motorcycle_int6_motorcycle" depart="2268.34" departLane="best" departSpeed="max" from="E22" to="E22.488"/>
    <trip id="res_motorcycle_int6200" type="res_motorcycle_int6_motorcycle" depart="2268.86" departLane="best" departSpeed="max" from="E22" to="E18.410"/>
    <trip id="res_motorcycle_int6202" type="res_motorcycle_int6_motorcycle" depart="2269.89" departLane="best" departSpeed="max" from="E31" to="E18.410"/>
    <trip id="res_motorcycle_int6204" type="res_motorcycle_int6_motorcycle" depart="2270.91" departLane="best" departSpeed="max" from="E22" to="E22.488"/>
    <trip id="res_motorcycle_int6205" type="res_motorcycle_int6_motorcycle" depart="2271.43" departLane="best" departSpeed="max" from="E31" to="E31.622"/>
    <trip id="res_motorcycle_int6207" type="res_motorcycle_int6_motorcycle" depart="2272.46" departLane="best" departSpeed="max" from="E18" to="E18.410"/>
    <trip id="res_motorcycle_int6208" type="res_motorcycle_int6_motorcycle" depart="2272.97" departLane="best" departSpeed="max" from="E18" to="E22.488"/>
    <trip id="res_motorcycle_int6209" type="res_motorcycle_int6_motorcycle" depart="2273.49" departLane="best" departSpeed="max" from="E31" to="E18.410"/>
    <trip id="res_motorcycle_int6210" type="res_motorcycle_int6_motorcycle" depart="2274.00" departLane="best" departSpeed="max" from="E22" to="E30.558"/>
    <trip id="res_motorcycle_int6212" type="res_motorcycle_int6_motorcycle" depart="2275.03" departLane="best" departSpeed="max" from="E22" to="E18.410"/>
    <trip id="res_motorcycle_int6213" type="res_motorcycle_int6_motorcycle" depart="2275.54" departLane="best" departSpeed="max" from="E22" to="E18.410"/>
    <trip id="res_motorcycle_int6214" type="res_motorcycle_int6_motorcycle" depart="2276.06" departLane="best" departSpeed="max" from="E30" to="E31.622"/>
    <trip id="res_motorcycle_int6215" type="res_motorcycle_int6_motorcycle" depart="2276.57" departLane="best" departSpeed="max" from="E18" to="E22.488"/>
    <trip id="res_motorcycle_int6216" type="res_motorcycle_int6_motorcycle" depart="2277.09" departLane="best" departSpeed="max" from="E18" to="E31.622"/>
    <trip id="res_motorcycle_int6217" type="res_motorcycle_int6_motorcycle" depart="2277.60" departLane="best" departSpeed="max" from="E22" to="E18.410"/>
    <trip id="res_motorcycle_int6218" type="res_motorcycle_int6_motorcycle" depart="2278.11" departLane="best" departSpeed="max" from="E18" to="E31.622"/>
    <trip id="res_motorcycle_int6220" type="res_motorcycle_int6_motorcycle" depart="2279.14" departLane="best" departSpeed="max" from="E30" to="E31.622"/>
    <trip id="res_motorcycle_int6222" type="res_motorcycle_int6_motorcycle" depart="2280.17" departLane="best" departSpeed="max" from="E31" to="E30.558"/>
    <trip id="res_motorcycle_int6223" type="res_motorcycle_int6_motorcycle" depart="2280.69" departLane="best" departSpeed="max" from="E30" to="E30.558"/>
    <trip id="res_motorcycle_int6224" type="res_motorcycle_int6_motorcycle" depart="2281.20" departLane="best" departSpeed="max" from="E31" to="E30.558"/>
    <trip id="res_motorcycle_int6225" type="res_motorcycle_int6_motorcycle" depart="2281.71" departLane="best" departSpeed="max" from="E31" to="E30.558"/>
    <trip id="res_motorcycle_int6226" type="res_motorcycle_int6_motorcycle" depart="2282.23" departLane="best" departSpeed="max" from="E22" to="E22.488"/>
    <trip id="res_motorcycle_int6228" type="res_motorcycle_int6_motorcycle" depart="2283.26" departLane="best" departSpeed="max" from="E31" to="E30.558"/>