<?xml version="1.0" encoding="UTF-8"?>

<!-- generated on 2025-08-02 13:29:58.339530 by randomTrips.py UNKNOWN
<configuration>
    <net-file value="osm.net.xml.gz"/>
    <weights-prefix value="random_edge_priority_interval_1"/>
    <output-trip-file value="osm.res_motorcycle.interval_1.trips.xml"/>
    <prefix value="res_motorcycle_int1"/>
    <trip-attributes value="departLane='best'"/>
    <fringe-start-attributes value="departSpeed='max'"/>
    <vehicle-class value="motorcycle"/>
    <vclass value="motorcycle"/>
    <remove-loops value="True"/>
    <validate value="True"/>
    <begin value="361.0"/>
    <end value="721.0"/>
    <insertion-rate value="1750.0"/>
</configuration>
-->

<!-- generated on 2025-08-02 13:29:58 by Eclipse SUMO duarouter Version 1.22.0
<duarouterConfiguration xmlns:xsi="http://www.w3.org/2001/XMLSchema-instance" xsi:noNamespaceSchemaLocation="http://sumo.dlr.de/xsd/duarouterConfiguration.xsd">

    <input>
        <net-file value="osm.net.xml.gz"/>
        <route-files value="osm.res_motorcycle.interval_1.trips.xml"/>
    </input>

    <output>
        <output-file value="osm.res_motorcycle.interval_1.trips.xml.tmp"/>
        <alternatives-output value="NUL"/>
        <write-trips value="true"/>
    </output>

    <processing>
        <remove-loops value="true"/>
    </processing>

    <time>
        <begin value="361.0"/>
        <end value="721.0"/>
    </time>

    <report>
        <no-warnings value="true"/>
        <ignore-errors value="true"/>
        <no-step-log value="true"/>
    </report>

</duarouterConfiguration>
-->

<routes xmlns:xsi="http://www.w3.org/2001/XMLSchema-instance" xsi:noNamespaceSchemaLocation="http://sumo.dlr.de/xsd/routes_file.xsd">
    <vType id="res_motorcycle_int1_motorcycle" vClass="motorcycle"/>
    <trip id="res_motorcycle_int10" type="res_motorcycle_int1_motorcycle" depart="361.00" departLane="best" departSpeed="max" from="E22" to="E18.410"/>
    <trip id="res_motorcycle_int11" type="res_motorcycle_int1_motorcycle" depart="363.06" departLane="best" departSpeed="max" from="E18" to="E18.410"/>
    <trip id="res_motorcycle_int12" type="res_motorcycle_int1_motorcycle" depart="365.11" departLane="best" departSpeed="max" from="E30" to="E30.558"/>
    <trip id="res_motorcycle_int14" type="res_motorcycle_int1_motorcycle" depart="369.23" departLane="best" departSpeed="max" from="E22" to="E18.410"/>
    <trip id="res_motorcycle_int16" type="res_motorcycle_int1_motorcycle" depart="373.34" departLane="best" departSpeed="max" from="E18" to="E18.410"/>
    <trip id="res_motorcycle_int17" type="res_motorcycle_int1_motorcycle" depart="375.40" departLane="best" departSpeed="max" from="E22" to="E30.558"/>
    <trip id="res_motorcycle_int110" type="res_motorcycle_int1_motorcycle" depart="381.57" departLane="best" departSpeed="max" from="E30" to="E30.558"/>
    <trip id="res_motorcycle_int111" type="res_motorcycle_int1_motorcycle" depart="383.63" departLane="best" departSpeed="max" from="E22" to="E18.410"/>
    <trip id="res_motorcycle_int113" type="res_motorcycle_int1_motorcycle" depart="387.74" departLane="best" departSpeed="max" from="E18" to="E18.410"/>
    <trip id="res_motorcycle_int114" type="res_motorcycle_int1_motorcycle" depart="389.80" departLane="best" departSpeed="max" from="E30" to="E30.558"/>
    <trip id="res_motorcycle_int115" type="res_motorcycle_int1_motorcycle" depart="391.86" departLane="best" departSpeed="max" from="E30" to="E30.558"/>
    <trip id="res_motorcycle_int117" type="res_motorcycle_int1_motorcycle" depart="395.97" departLane="best" departSpeed="max" from="E22" to="E30.558"/>
    <trip id="res_motorcycle_int118" type="res_motorcycle_int1_motorcycle" depart="398.03" departLane="best" departSpeed="max" from="E30" to="E30.558"/>
    <trip id="res_motorcycle_int119" type="res_motorcycle_int1_motorcycle" depart="400.09" departLane="best" departSpeed="max" from="E30" to="E30.558"/>
    <trip id="res_motorcycle_int121" type="res_motorcycle_int1_motorcycle" depart="404.20" departLane="best" departSpeed="max" from="E18" to="E22.488"/>
    <trip id="res_motorcycle_int122" type="res_motorcycle_int1_motorcycle" depart="406.26" departLane="best" departSpeed="max" from="E18" to="E18.410"/>
    <trip id="res_motorcycle_int123" type="res_motorcycle_int1_motorcycle" depart="408.31" departLane="best" departSpeed="max" from="E18" to="E22.488"/>
    <trip id="res_motorcycle_int124" type="res_motorcycle_int1_motorcycle" depart="410.37" departLane="best" departSpeed="max" from="E22" to="E22.488"/>
    <trip id="res_motorcycle_int125" type="res_motorcycle_int1_motorcycle" depart="412.43" departLane="best" departSpeed="max" from="E22" to="E18.410"/>
    <trip id="res_motorcycle_int126" type="res_motorcycle_int1_motorcycle" depart="414.49" departLane="best" departSpeed="max" from="E18" to="E31.622"/>
    <trip id="res_motorcycle_int127" type="res_motorcycle_int1_motorcycle" depart="416.54" departLane="best" departSpeed="max" from="E22" to="E30.558"/>
    <trip id="res_motorcycle_int129" type="res_motorcycle_int1_motorcycle" depart="420.66" departLane="best" departSpeed="max" from="E18" to="E22.488"/>
    <trip id="res_motorcycle_int130" type="res_motorcycle_int1_motorcycle" depart="422.71" departLane="best" departSpeed="max" from="E31" to="E30.558"/>
    <trip id="res_motorcycle_int131" type="res_motorcycle_int1_motorcycle" depart="424.77" departLane="best" departSpeed="max" from="E22" to="E30.558"/>
    <trip id="res_motorcycle_int132" type="res_motorcycle_int1_motorcycle" depart="426.83" departLane="best" departSpeed="max" from="E30" to="E31.622"/>
    <trip id="res_motorcycle_int133" type="res_motorcycle_int1_motorcycle" depart="428.89" departLane="best" departSpeed="max" from="E18" to="E18.410"/>
    <trip id="res_motorcycle_int134" type="res_motorcycle_int1_motorcycle" depart="430.94" departLane="best" departSpeed="max" from="E18" to="E22.488"/>
    <trip id="res_motorcycle_int135" type="res_motorcycle_int1_motorcycle" depart="433.00" departLane="best" departSpeed="max" from="E18" to="E31.622"/>
    <trip id="res_motorcycle_int136" type="res_motorcycle_int1_motorcycle" depart="435.06" departLane="best" departSpeed="max" from="E30" to="E22.488"/>
    <trip id="res_motorcycle_int137" type="res_motorcycle_int1_motorcycle" depart="437.11" departLane="best" departSpeed="max" from="E30" to="E22.488"/>
    <trip id="res_motorcycle_int139" type="res_motorcycle_int1_motorcycle" depart="441.23" departLane="best" departSpeed="max" from="E18" to="E18.410"/>
    <trip id="res_motorcycle_int140" type="res_motorcycle_int1_motorcycle" depart="443.29" departLane="best" departSpeed="max" from="E22" to="E22.488"/>
    <trip id="res_motorcycle_int142" type="res_motorcycle_int1_motorcycle" depart="447.40" departLane="best" departSpeed="max" from="E22" to="E18.410"/>
    <trip id="res_motorcycle_int143" type="res_motorcycle_int1_motorcycle" depart="449.46" departLane="best" departSpeed="max" from="E31" to="E30.558"/>
    <trip id="res_motorcycle_int144" type="res_motorcycle_int1_motorcycle" depart="451.51" departLane="best" departSpeed="max" from="E18" to="E18.410"/>
    <trip id="res_motorcycle_int146" type="res_motorcycle_int1_motorcycle" depart="455.63" departLane="best" departSpeed="max" from="E30" to="E22.488"/>
    <trip id="res_motorcycle_int147" type="res_motorcycle_int1_motorcycle" depart="457.69" departLane="best" departSpeed="max" from="E18" to="E22.488"/>
    <trip id="res_motorcycle_int148" type="res_motorcycle_int1_motorcycle" depart="459.74" departLane="best" departSpeed="max" from="E31" to="E30.558"/>
    <trip id="res_motorcycle_int149" type="res_motorcycle_int1_motorcycle" depart="461.80" departLane="best" departSpeed="max" from="E31" to="E31.622"/>
    <trip id="res_motorcycle_int151" type="res_motorcycle_int1_motorcycle" depart="465.91" departLane="best" departSpeed="max" from="E30" to="E30.558"/>
    <trip id="res_motorcycle_int153" type="res_motorcycle_int1_motorcycle" depart="470.03" departLane="best" departSpeed="max" from="E18" to="E22.488"/>
    <trip id="res_motorcycle_int155" type="res_motorcycle_int1_motorcycle" depart="474.14" departLane="best" departSpeed="max" from="E30" to="E22.488"/>
    <trip id="res_motorcycle_int156" type="res_motorcycle_int1_motorcycle" depart="476.20" departLane="best" departSpeed="max" from="E22" to="E18.410"/>
    <trip id="res_motorcycle_int157" type="res_motorcycle_int1_motorcycle" depart="478.26" departLane="best" departSpeed="max" from="E31" to="E31.622"/>
    <trip id="res_motorcycle_int159" type="res_motorcycle_int1_motorcycle" depart="482.37" departLane="best" departSpeed="max" from="E22" to="E18.410"/>
    <trip id="res_motorcycle_int160" type="res_motorcycle_int1_motorcycle" depart="484.43" departLane="best" departSpeed="max" from="E30" to="E30.558"/>
    <trip id="res_motorcycle_int161" type="res_motorcycle_int1_motorcycle" depart="486.49" departLane="best" departSpeed="max" from="E30" to="E30.558"/>
    <trip id="res_motorcycle_int162" type="res_motorcycle_int1_motorcycle" depart="488.54" departLane="best" departSpeed="max" from="E18" to="E22.488"/>
    <trip id="res_motorcycle_int163" type="res_motorcycle_int1_motorcycle" depart="490.60" departLane="best" departSpeed="max" from="E18" to="E31.622"/>
    <trip id="res_motorcycle_int164" type="res_motorcycle_int1_motorcycle" depart="492.66" departLane="best" departSpeed="max" from="E30" to="E31.622"/>
    <trip id="res_motorcycle_int165" type="res_motorcycle_int1_motorcycle" depart="494.71" departLane="best" departSpeed="max" from="E18" to="E18.410"/>
    <trip id="res_motorcycle_int166" type="res_motorcycle_int1_motorcycle" depart="496.77" departLane="best" departSpeed="max" from="E30" to="E31.622"/>
    <trip id="res_motorcycle_int167" type="res_motorcycle_int1_motorcycle" depart="498.83" departLane="best" departSpeed="max" from="E18" to="E22.488"/>
    <trip id="res_motorcycle_int168" type="res_motorcycle_int1_motorcycle" depart="500.89" departLane="best" departSpeed="max" from="E18" to="E31.622"/>
    <trip id="res_motorcycle_int170" type="res_motorcycle_int1_motorcycle" depart="505.00" departLane="best" departSpeed="max" from="E22" to="E30.558"/>
    <trip id="res_motorcycle_int171" type="res_motorcycle_int1_motorcycle" depart="507.06" departLane="best" departSpeed="max" from="E18" to="E31.622"/>
    <trip id="res_motorcycle_int172" type="res_motorcycle_int1_motorcycle" depart="509.11" departLane="best" departSpeed="max" from="E22" to="E18.410"/>
    <trip id="res_motorcycle_int173" type="res_motorcycle_int1_motorcycle" depart="511.17" departLane="best" departSpeed="max" from="E22" to="E30.558"/>
    <trip id="res_motorcycle_int174" type="res_motorcycle_int1_motorcycle" depart="513.23" departLane="best" departSpeed="max" from="E18" to="E22.488"/>
    <trip id="res_motorcycle_int175" type="res_motorcycle_int1_motorcycle" depart="515.29" departLane="best" departSpeed="max" from="E31" to="E30.558"/>
    <trip id="res_motorcycle_int176" type="res_motorcycle_int1_motorcycle" depart="517.34" departLane="best" departSpeed="max" from="E22" to="E30.558"/>
    <trip id="res_motorcycle_int177" type="res_motorcycle_int1_motorcycle" depart="519.40" departLane="best" departSpeed="max" from="E18" to="E18.410"/>
    <trip id="res_motorcycle_int178" type="res_motorcycle_int1_motorcycle" depart="521.46" departLane="best" departSpeed="max" from="E22" to="E30.558"/>
    <trip id="res_motorcycle_int179" type="res_motorcycle_int1_motorcycle" depart="523.51" departLane="best" departSpeed="max" from="E18" to="E18.410"/>
    <trip id="res_motorcycle_int181" type="res_motorcycle_int1_motorcycle" depart="527.63" departLane="best" departSpeed="max" from="E18" to="E31.622"/>
    <trip id="res_motorcycle_int184" type="res_motorcycle_int1_motorcycle" depart="533.80" departLane="best" departSpeed="max" from="E18" to="E18.410"/>
    <trip id="res_motorcycle_int185" type="res_motorcycle_int1_motorcycle" depart="535.86" departLane="best" departSpeed="max" from="E31" to="E30.558"/>
    <trip id="res_motorcycle_int188" type="res_motorcycle_int1_motorcycle" depart="542.03" departLane="best" departSpeed="max" from="E18" to="E22.488"/>
    <trip id="res_motorcycle_int189" type="res_motorcycle_int1_motorcycle" depart="544.09" departLane="best" departSpeed="max" from="E22" to="E22.488"/>
    <trip id="res_motorcycle_int190" type="res_motorcycle_int1_motorcycle" depart="546.14" departLane="best" departSpeed="max" from="E30" to="E30.558"/>
    <trip id="res_motorcycle_int191" type="res_motorcycle_int1_motorcycle" depart="548.20" departLane="best" departSpeed="max" from="E31" to="E18.410"/>
    <trip id="res_motorcycle_int192" type="res_motorcycle_int1_motorcycle" depart="550.26" departLane="best" departSpeed="max" from="E22" to="E22.488"/>
    <trip id="res_motorcycle_int194" type="res_motorcycle_int1_motorcycle" depart="554.37" departLane="best" departSpeed="max" from="E18" to="E22.488"/>
    <trip id="res_motorcycle_int195" type="res_motorcycle_int1_motorcycle" depart="556.43" departLane="best" departSpeed="max" from="E22" to="E22.488"/>
    <trip id="res_motorcycle_int196" type="res_motorcycle_int1_motorcycle" depart="558.49" departLane="best" departSpeed="max" from="E18" to="E31.622"/>
    <trip id="res_motorcycle_int198" type="res_motorcycle_int1_motorcycle" depart="562.60" departLane="best" departSpeed="max" from="E22" to="E18.410"/>
    <trip id="res_motorcycle_int199" type="res_motorcycle_int1_motorcycle" depart="564.66" departLane="best" departSpeed="max" from="E31" to="E31.622"/>
    <trip id="res_motorcycle_int1100" type="res_motorcycle_int1_motorcycle" depart="566.71" departLane="best" departSpeed="max" from="E31" to="E31.622"/>
    <trip id="res_motorcycle_int1102" type="res_motorcycle_int1_motorcycle" depart="570.83" departLane="best" departSpeed="max" from="E22" to="E18.410"/>
    <trip id="res_motorcycle_int1103" type="res_motorcycle_int1_motorcycle" depart="572.89" departLane="best" departSpeed="max" from="E22" to="E18.410"/>
    <trip id="res_motorcycle_int1105" type="res_motorcycle_int1_motorcycle" depart="577.00" departLane="best" departSpeed="max" from="E18" to="E31.622"/>
    <trip id="res_motorcycle_int1106" type="res_motorcycle_int1_motorcycle" depart="579.06" departLane="best" departSpeed="max" from="E22" to="E22.488"/>
    <trip id="res_motorcycle_int1107" type="res_motorcycle_int1_motorcycle" depart="581.11" departLane="best" departSpeed="max" from="E31" to="E31.622"/>
    <trip id="res_motorcycle_int1108" type="res_motorcycle_int1_motorcycle" depart="583.17" departLane="best" departSpeed="max" from="E22" to="E30.558"/>
    <trip id="res_motorcycle_int1109" type="res_motorcycle_int1_motorcycle" depart="585.23" departLane="best" departSpeed="max" from="E18" to="E22.488"/>
    <trip id="res_motorcycle_int1110" type="res_motorcycle_int1_motorcycle" depart="587.29" departLane="best" departSpeed="max" from="E31" to="E30.558"/>
    <trip id="res_motorcycle_int1111" type="res_motorcycle_int1_motorcycle" depart="589.34" departLane="best" departSpeed="max" from="E22" to="E30.558"/>
    <trip id="res_motorcycle_int1114" type="res_motorcycle_int1_motorcycle" depart="595.51" departLane="best" departSpeed="max" from="E18" to="E31.622"/>
    <trip id="res_motorcycle_int1115" type="res_motorcycle_int1_motorcycle" depart="597.57" departLane="best" departSpeed="max" from="E18" to="E18.410"/>
    <trip id="res_motorcycle_int1116" type="res_motorcycle_int1_motorcycle" depart="599.63" departLane="best" departSpeed="max" from="E22" to="E30.558"/>
    <trip id="res_motorcycle_int1117" type="res_motorcycle_int1_motorcycle" depart="601.69" departLane="best" departSpeed="max" from="E18" to="E18.410"/>
    <trip id="res_motorcycle_int1119" type="res_motorcycle_int1_motorcycle" depart="605.80" departLane="best" departSpeed="max" from="E22" to="E30.558"/>
    <trip id="res_motorcycle_int1120" type="res_motorcycle_int1_motorcycle" depart="607.86" departLane="best" departSpeed="max" from="E22" to="E30.558"/>
    <trip id="res_motorcycle_int1123" type="res_motorcycle_int1_motorcycle" depart="614.03" departLane="best" departSpeed="max" from="E18" to="E22.488"/>
    <trip id="res_motorcycle_int1124" type="res_motorcycle_int1_motorcycle" depart="616.09" departLane="best" departSpeed="max" from="E30" to="E22.488"/>
    <trip id="res_motorcycle_int1125" type="res_motorcycle_int1_motorcycle" depart="618.14" departLane="best" departSpeed="max" from="E18" to="E31.622"/>
    <trip id="res_motorcycle_int1126" type="res_motorcycle_int1_motorcycle" depart="620.20" departLane="best" departSpeed="max" from="E18" to="E22.488"/>
    <trip id="res_motorcycle_int1127" type="res_motorcycle_int1_motorcycle" depart="622.26" departLane="best" departSpeed="max" from="E31" to="E31.622"/>
    <trip id="res_motorcycle_int1128" type="res_motorcycle_int1_motorcycle" depart="624.31" departLane="best" departSpeed="max" from="E18" to="E18.410"/>
    <trip id="res_motorcycle_int1129" type="res_motorcycle_int1_motorcycle" depart="626.37" departLane="best" departSpeed="max" from="E18" to="E31.622"/>
    <trip id="res_motorcycle_int1130" type="res_motorcycle_int1_motorcycle" depart="628.43" departLane="best" departSpeed="max" from="E30" to="E31.622"/>
    <trip id="res_motorcycle_int1131" type="res_motorcycle_int1_motorcycle" depart="630.49" departLane="best" departSpeed="max" from="E22" to="E18.410"/>
    <trip id="res_motorcycle_int1132" type="res_motorcycle_int1_motorcycle" depart="632.54" departLane="best" departSpeed="max" from="E30" to="E30.558"/>
    <trip id="res_motorcycle_int1135" type="res_motorcycle_int1_motorcycle" depart="638.71" departLane="best" departSpeed="max" from="E30" to="E22.488"/>
    <trip id="res_motorcycle_int1136" type="res_motorcycle_int1_motorcycle" depart="640.77" departLane="best" departSpeed="max" from="E30" to="E31.622"/>
    <trip id="res_motorcycle_int1137" type="res_motorcycle_int1_motorcycle" depart="642.83" departLane="best" departSpeed="max" from="E18" to="E18.410"/>
    <trip id="res_motorcycle_int1141" type="res_motorcycle_int1_motorcycle" depart="651.06" departLane="best" departSpeed="max" from="E22" to="E22.488"/>
    <trip id="res_motorcycle_int1144" type="res_motorcycle_int1_motorcycle" depart="657.23" departLane="best" departSpeed="max" from="E22" to="E22.488"/>
    <trip id="res_motorcycle_int1145" type="res_motorcycle_int1_motorcycle" depart="659.29" departLane="best" departSpeed="max" from="E18" to="E31.622"/>
    <trip id="res_motorcycle_int1146" type="res_motorcycle_int1_motorcycle" depart="661.34" departLane="best" departSpeed="max" from="E22" to="E22.488"/>
    <trip id="res_motorcycle_int1147" type="res_motorcycle_int1_motorcycle" depart="663.40" departLane="best" departSpeed="max" from="E30" to="E30.558"/>
    <trip id="res_motorcycle_int1148" type="res_motorcycle_int1_motorcycle" depart="665.46" departLane="best" departSpeed="max" from="E22" to="E18.410"/>
    <trip id="res_motorcycle_int1149" type="res_motorcycle_int1_motorcycle" depart="667.51" departLane="best" departSpeed="max" from="E18" to="E31.622"/>
    <trip id="res_motorcycle_int1150" type="res_motorcycle_int1_motorcycle" depart="669.57" departLane="best" departSpeed="max" from="E31" to="E30.558"/>
    <trip id="res_motorcycle_int1151" type="res_motorcycle_int1_motorcycle" depart="671.63" departLane="best" departSpeed="max" from="E30" to="E30.558"/>
    <trip id="res_motorcycle_int1152" type="res_motorcycle_int1_motorcycle" depart="673.69" departLane="best" departSpeed="max" from="E18" to="E18.410"/>
    <trip id="res_motorcycle_int1153" type="res_motorcycle_int1_motorcycle" depart="675.74" departLane="best" departSpeed="max" from="E18" to="E31.622"/>
    <trip id="res_motorcycle_int1154" type="res_motorcycle_int1_motorcycle" depart="677.80" departLane="best" departSpeed="max" from="E30" to="E31.622"/>
    <trip id="res_motorcycle_int1156" type="res_motorcycle_int1_motorcycle" depart="681.91" departLane="best" departSpeed="max" from="E18" to="E18.410"/>
    <trip id="res_motorcycle_int1157" type="res_motorcycle_int1_motorcycle" depart="683.97" departLane="best" departSpeed="max" from="E30" to="E31.622"/>
    <trip id="res_motorcycle_int1158" type="res_motorcycle_int1_motorcycle" depart="686.03" departLane="best" departSpeed="max" from="E22" to="E30.558"/>
    <trip id="res_motorcycle_int1159" type="res_motorcycle_int1_motorcycle" depart="688.09" departLane="best" departSpeed="max" from="E18" to="E31.622"/>
    <trip id="res_motorcycle_int1160" type="res_motorcycle_int1_motorcycle" depart="690.14" departLane="best" departSpeed="max" from="E30" to="E31.622"/>
    <trip id="res_motorcycle_int1161" type="res_motorcycle_int1_motorcycle" depart="692.20" departLane="best" departSpeed="max" from="E30" to="E31.622"/>
    <trip id="res_motorcycle_int1164" type="res_motorcycle_int1_motorcycle" depart="698.37" departLane="best" departSpeed="max" from="E30" to="E31.622"/>
    <trip id="res_motorcycle_int1165" type="res_motorcycle_int1_motorcycle" depart="700.43" departLane="best" departSpeed="max" from="E30" to="E22.488"/>
    <trip id="res_motorcycle_int1167" type="res_motorcycle_int1_motorcycle" depart="704.54" departLane="best" departSpeed="max" from="E30" to="E31.622"/>
    <trip id="res_motorcycle_int1168" type="res_motorcycle_int1_motorcycle" depart="706.60" departLane="best" departSpeed="max" from="E18" to="E31.622"/>
    <trip id="res_motorcycle_int1169" type="res_motorcycle_int1_motorcycle" depart="708.66" departLane="best" departSpeed="max" from="E22" to="E22.488"/>
    <trip id="res_motorcycle_int1171" type="res_motorcycle_int1_motorcycle" depart="712.77" departLane="best" departSpeed="max" from="E18" to="E18.410"/>
    <trip id="res_motorcycle_int1172" type="res_motorcycle_int1_motorcycle" depart="714.83" departLane="best" departSpeed="max" from="E18" to="E31.622"/>
    <trip id="res_motorcycle_int1174" type="res_motorcycle_int1_motorcycle" depart="718.94" departLane="best" departSpeed="max" from="E22" to="E22.488"/>
</routes>
