<?xml version="1.0" encoding="UTF-8"?>

<!-- generated on 2025-05-15 12:42:39.876355 by randomTrips.py v1_22_0+0002-63e50f52594
<configuration>
    <net-file value="osm.net.xml.gz"/>
    <output-trip-file value="osm.pedestrian.trips.xml"/>
    <route-file value="osm.pedestrian.rou.xml"/>
    <pedestrians value="True"/>
    <prefix value="ped"/>
    <vehicle-class value="pedestrian"/>
    <fringe-factor value="1"/>
    <max-distance value="2000.0"/>
    <insertion-density value="100.0"/>
</configuration>
-->

<!-- generated on 2025-05-15 12:42:39 by Eclipse SUMO duarouter Version 1.22.0
<duarouterConfiguration xmlns:xsi="http://www.w3.org/2001/XMLSchema-instance" xsi:noNamespaceSchemaLocation="http://sumo.dlr.de/xsd/duarouterConfiguration.xsd">

    <input>
        <net-file value="osm.net.xml.gz"/>
        <route-files value="osm.pedestrian.trips.xml"/>
    </input>

    <output>
        <output-file value="osm.pedestrian.rou.xml"/>
        <alternatives-output value="NUL"/>
    </output>

    <time>
        <begin value="0.0"/>
        <end value="3600.0"/>
    </time>

    <report>
        <no-warnings value="true"/>
        <ignore-errors value="true"/>
        <no-step-log value="true"/>
    </report>

</duarouterConfiguration>
-->

<routes xmlns:xsi="http://www.w3.org/2001/XMLSchema-instance" xsi:noNamespaceSchemaLocation="http://sumo.dlr.de/xsd/routes_file.xsd">
    <vType id="ped_pedestrian" vClass="pedestrian"/>
    <person id="ped7" type="ped_pedestrian" depart="35.29">
        <walk edges="305994983#0 305994983#1 302765760#1"/>
    </person>
    <person id="ped13" type="ped_pedestrian" depart="65.54">
        <walk edges="-303011144"/>
    </person>
    <person id="ped27" type="ped_pedestrian" depart="136.13">
        <walk edges="305994983#0 305994983#1 302765758#0 302765758#1 303011152"/>
    </person>
    <person id="ped44" type="ped_pedestrian" depart="221.84">
        <walk edges="-303011142#1 -303011144 -303011140#0 -1371895643#1"/>
    </person>
    <person id="ped45" type="ped_pedestrian" depart="226.88">
        <walk edges="-305994976 305994976"/>
    </person>
    <person id="ped52" type="ped_pedestrian" depart="262.17">
        <walk edges="-675771884#3 -305994981 305994981"/>
    </person>
    <person id="ped53" type="ped_pedestrian" depart="267.22">
        <walk edges="-305994976 -675771884#1 1369563713 1369563715"/>
    </person>
    <person id="ped89" type="ped_pedestrian" depart="448.72">
        <walk edges="1369563713 -675771884#1 -675771884#3 -675771884#4 1369563720"/>
    </person>
    <person id="ped105" type="ped_pedestrian" depart="529.39">
        <walk edges="-675771884#3 675771884#3"/>
    </person>
    <person id="ped106" type="ped_pedestrian" depart="534.43">
        <walk edges="1369563718 1369563717 -1369563719 1369563713"/>
    </person>
    <person id="ped122" type="ped_pedestrian" depart="615.10">
        <walk edges="-641438982#2 641438982#0"/>
    </person>
    <person id="ped127" type="ped_pedestrian" depart="640.31">
        <walk edges="908405489"/>
    </person>
    <person id="ped140" type="ped_pedestrian" depart="705.85">
        <walk edges="641438982#0 -641438982#2"/>
    </person>
    <person id="ped144" type="ped_pedestrian" depart="726.02">
        <walk edges="1369563713 -675771884#1 -675771884#3 -675771884#4 -675771884#5"/>
    </person>
    <person id="ped152" type="ped_pedestrian" depart="766.35">
        <walk edges="-305994987#2 305994983#1 -305994983#1"/>
    </person>
    <person id="ped153" type="ped_pedestrian" depart="771.40">
        <walk edges="-694334211#0 -694334211#1 -694334210#0 694334212"/>
    </person>
    <person id="ped166" type="ped_pedestrian" depart="836.94">
        <walk edges="675771884#3 -305994973"/>
    </person>
    <person id="ped179" type="ped_pedestrian" depart="902.48">
        <walk edges="-305994973 -675771884#3 -675771884#1 1369563713 1369563715"/>
    </person>
    <person id="ped215" type="ped_pedestrian" depart="1083.99">
        <walk edges="-305994973 -675771884#3 -675771884#1 1369563713"/>
    </person>
    <person id="ped229" type="ped_pedestrian" depart="1154.57">
        <walk edges="305994976 -675771884#3 -675771884#4 -675771884#5"/>
    </person>
    <person id="ped232" type="ped_pedestrian" depart="1169.70">
        <walk edges="302765760#0 302765760#1 305994983#1 305994987#2 -305994987#1"/>
    </person>
    <person id="ped245" type="ped_pedestrian" depart="1235.24">
        <walk edges="-643248615"/>
    </person>
    <person id="ped246" type="ped_pedestrian" depart="1240.28">
        <walk edges="1369563715 1369563713 -1369563719"/>
    </person>
    <person id="ped250" type="ped_pedestrian" depart="1260.45">
        <walk edges="305994973 -675771884#3 -675771884#1 -1369563719 1369563717 -1369563716"/>
    </person>
    <person id="ped252" type="ped_pedestrian" depart="1270.53">
        <walk edges="-1369563716 1369563717 -1369563719 -675771884#1 -305994981 305994981"/>
    </person>
    <person id="ped265" type="ped_pedestrian" depart="1336.08">
        <walk edges="-305994983#1 305994983#1 305994987#2"/>
    </person>
    <person id="ped271" type="ped_pedestrian" depart="1366.33">
        <walk edges="-305994973 -675771884#3 -675771884#1 -1369563719 1369563717 -1369563716"/>
    </person>
    <person id="ped282" type="ped_pedestrian" depart="1421.79">
        <walk edges="693839963#2 693839961#2"/>
    </person>
    <person id="ped306" type="ped_pedestrian" depart="1542.79">
        <walk edges="303011142#1 -303011144 -303011140#0 -1371895643#0 1371895643#0"/>
    </person>
    <person id="ped339" type="ped_pedestrian" depart="1709.17">
        <walk edges="-643248612#0"/>
    </person>
    <person id="ped347" type="ped_pedestrian" depart="1749.50">
        <walk edges="675771884#3 305994976"/>
    </person>
    <person id="ped355" type="ped_pedestrian" depart="1789.84">
        <walk edges="405966001#0 -405966001#1 405966001#2"/>
    </person>
    <person id="ped358" type="ped_pedestrian" depart="1804.96">
        <walk edges="-1369563720 -675771884#4 -675771884#3 -675771884#1 1369563713 1369563715 1369563714"/>
    </person>
    <person id="ped389" type="ped_pedestrian" depart="1961.26">
        <walk edges="1369563719 -675771884#1 -305994981"/>
    </person>
    <person id="ped397" type="ped_pedestrian" depart="2001.59">
        <walk edges="-675771884#5 675771884#4"/>
    </person>
    <person id="ped429" type="ped_pedestrian" depart="2162.93">
        <walk edges="-303011152 302765760#0 302765760#1 305994983#1 305994987#2 305994977"/>
    </person>
    <person id="ped434" type="ped_pedestrian" depart="2188.14">
        <walk edges="-305994987#2 305994983#1 302765758#0"/>
    </person>
    <person id="ped440" type="ped_pedestrian" depart="2218.39">
        <walk edges="-675771884#0"/>
    </person>
    <person id="ped449" type="ped_pedestrian" depart="2263.77">
        <walk edges="303011141"/>
    </person>
    <person id="ped510" type="ped_pedestrian" depart="2571.32">
        <walk edges="-643248612#0 -643248612#1"/>
    </person>
    <person id="ped514" type="ped_pedestrian" depart="2591.48">
        <walk edges="-305994987#2 305994983#1 -305994983#1"/>
    </person>
    <person id="ped533" type="ped_pedestrian" depart="2687.28">
        <walk edges="305994977 305994987#2 305994983#1 302765760#1"/>
    </person>
    <person id="ped549" type="ped_pedestrian" depart="2767.95">
        <walk edges="303011143 -303011144 303011140#0"/>
    </person>
    <person id="ped562" type="ped_pedestrian" depart="2833.49">
        <walk edges="305994981 -305994981 -675771884#1 -1369563719 1369563717 -1369563716"/>
    </person>
    <person id="ped578" type="ped_pedestrian" depart="2914.16">
        <walk edges="1369563716 1369563717 -1369563719 -675771884#1 -675771884#3 -675771884#4"/>
    </person>
    <person id="ped590" type="ped_pedestrian" depart="2974.66">
        <walk edges="693839962#0 693839962#2 693839963#0 693839963#2 693839961#2 693839077#0"/>
    </person>
    <person id="ped594" type="ped_pedestrian" depart="2994.83">
        <walk edges="303011141"/>
    </person>
    <person id="ped596" type="ped_pedestrian" depart="3004.91">
        <walk edges="-305994981 -675771884#1 1369563713 1369563715 -1369563714"/>
    </person>
    <person id="ped613" type="ped_pedestrian" depart="3090.62">
        <walk edges="643248617#1"/>
    </person>
    <person id="ped640" type="ped_pedestrian" depart="3226.75">
        <walk edges="-303011140#0 -303011144"/>
    </person>
    <person id="ped654" type="ped_pedestrian" depart="3297.34">
        <walk edges="-697210393"/>
    </person>
    <person id="ped673" type="ped_pedestrian" depart="3393.13">
        <walk edges="696463776 405966000 -405966001#1 896406507"/>
    </person>
    <person id="ped702" type="ped_pedestrian" depart="3539.34">
        <walk edges="1369563718 1369563717 -1369563719 -675771884#1 -305994976"/>
    </person>
</routes>
