<?xml version="1.0" encoding="UTF-8"?>

<!-- generated on 2025-05-15 12:42:35.396282 by randomTrips.py v1_22_0+0002-63e50f52594
<configuration>
    <net-file value="osm.net.xml.gz"/>
    <output-trip-file value="osm.bicycle.trips.xml"/>
    <route-file value="osm.bicycle.rou.xml"/>
    <prefix value="bike"/>
    <trip-attributes value="departLane=&quot;best&quot;"/>
    <fringe-start-attributes value="departSpeed=&quot;max&quot;"/>
    <vehicle-class value="bicycle"/>
    <fringe-factor value="2"/>
    <vclass value="bicycle"/>
    <via-edge-types value="highway.motorway,highway.motorway_link,highway.trunk_link,highway.primary_link,highway.secondary_link,highway.tertiary_link"/>
    <max-distance value="8000.0"/>
    <remove-loops value="True"/>
    <validate value="True"/>
    <insertion-density value="60.0"/>
</configuration>
-->

<!-- generated on 2025-05-15 12:42:35 by Eclipse SUMO duarouter Version 1.22.0
<duarouterConfiguration xmlns:xsi="http://www.w3.org/2001/XMLSchema-instance" xsi:noNamespaceSchemaLocation="http://sumo.dlr.de/xsd/duarouterConfiguration.xsd">

    <input>
        <net-file value="osm.net.xml.gz"/>
        <route-files value="osm.bicycle.trips.xml"/>
    </input>

    <output>
        <output-file value="osm.bicycle.rou.xml"/>
        <alternatives-output value="NUL"/>
    </output>

    <processing>
        <remove-loops value="true"/>
    </processing>

    <time>
        <begin value="0.0"/>
        <end value="3600.0"/>
    </time>

    <report>
        <no-warnings value="true"/>
        <ignore-errors value="true"/>
        <no-step-log value="true"/>
    </report>

</duarouterConfiguration>
-->

<routes xmlns:xsi="http://www.w3.org/2001/XMLSchema-instance" xsi:noNamespaceSchemaLocation="http://sumo.dlr.de/xsd/routes_file.xsd">
    <vType id="bike_bicycle" vClass="bicycle"/>
    <vehicle id="bike0" type="bike_bicycle" depart="0.00" departLane="best" departSpeed="max">
        <route edges="118672484#0 118672484#1 118672484#3 -697028016#11 -697028016#10 -697028016#9 -697028016#7 -697028016#6 -697028016#5 -697028016#3 -697028016#2 -697028016#1 -295842845#13 -295842845#10 -295842845#9 -303500262#1 -303500262#0 -118672230#0"/>
    </vehicle>
    <vehicle id="bike1" type="bike_bicycle" depart="1.22" departLane="best">
        <route edges="-303011142#1 -303011141 302765738#1 1280089210 1280089208#0 641403961 657772383#0 657772383#1 657772383#2 1381019928#0 1381019928#1"/>
    </vehicle>
    <vehicle id="bike2" type="bike_bicycle" depart="2.43" departLane="best">
        <route edges="295842845#5 -828696689#1 -828696689#0 673151153#2 303500261#0 302751283#5 302751283#6 302751283#7 302765759#0 302765759#1 302765759#2 -303011140#1 -303011140#0 1371895643#1"/>
    </vehicle>
    <vehicle id="bike3" type="bike_bicycle" depart="3.65" departLane="best">
        <route edges="672811722 -118672383#0 118672375#4 -118672330#2"/>
    </vehicle>
    <vehicle id="bike4" type="bike_bicycle" depart="4.87" departLane="best" departSpeed="max">
        <route edges="-696235206 118672270#1 -118672230#5 -118672230#4"/>
    </vehicle>
    <vehicle id="bike5" type="bike_bicycle" depart="6.08" departLane="best">
        <route edges="258076338#1 -258076337 -697028016#1 -295842845#13 -295842845#10 -295842845#9 -295842845#7 -295842845#6 -295842845#5 118672270#0"/>
    </vehicle>
    <vehicle id="bike6" type="bike_bicycle" depart="7.30" departLane="best">
        <route edges="118672230#1 118672230#2 118555831#1 118555831#2 118555831#3 118555831#4 118555831#5 118555831#6 118555831#7 118555831#8 118555831#9 118555831#10 -118672622#1 -118672622#0"/>
    </vehicle>
    <vehicle id="bike7" type="bike_bicycle" depart="8.51" departLane="best">
        <route edges="118672487#1 118672495#0 118672495#1 118672495#2 118672495#3 118672495#4 118672495#5 118672495#6 -672811721#3 -118672432#1 -118672432#0 118672253#3 118672253#4 672811720#3"/>
    </vehicle>
    <vehicle id="bike8" type="bike_bicycle" depart="9.73" departLane="best">
        <route edges="-258076340 -697028016#3 -697028016#2 -697028016#1 673195454#1 673195454#2 302751283#1 302751283#2 302751283#3 302751283#5 302751283#6 302751283#7 302765759#0 302765759#1 302765759#2 302765738#0 302765738#1 1280089210 1280089208#0 641403961 657772383#0 657772383#1 657772383#2 657772383#3 -302763996#4 -658076318#2 -118672253#8 -118672253#7 -118672375#5 -118672375#4 -118672375#3 -118672375#2 -118672375#1 118672433#1 118672433#2 118672433#3 118672433#4 118672433#5 118672433#6"/>
    </vehicle>
    <vehicle id="bike11" type="bike_bicycle" depart="13.38" departLane="best">
        <route edges="-672811721#1 -118672330#3 -118672375#4 -118672375#3 -118672375#2 118672382#0 -118672506#5 -118672506#4 118672446#0 118672470#2"/>
    </vehicle>
    <vehicle id="bike12" type="bike_bicycle" depart="14.60" departLane="best">
        <route edges="695496270#1 -676441605#3 118672443#2 673151165 303500262#0 303500262#1 405966001#0 405966001#1 405966001#2 -895442884 303500261#0 302751283#5 302751283#6 302751283#7 302765759#0 302765759#1 302765759#2 302765738#0 302765738#1 1280089210 1280089208#0 641403961 657772383#0 657772383#1 657772383#2 657772383#3 -302763996#4 -658076318#2 -118672253#8 -118672253#7 -118672253#6 -118672253#4 641433845#0 641433845#1"/>
    </vehicle>
    <vehicle id="bike13" type="bike_bicycle" depart="15.81" departLane="best">
        <route edges="-118672349#6"/>
    </vehicle>
    <vehicle id="bike14" type="bike_bicycle" depart="17.03" departLane="best">
        <route edges="641403960#1 641403959#1 -302752531#1 -302752531#0 -302763996#4 -658076318#2 -118672253#8 -118672253#7 -118672375#5 -118672375#4 -118672375#3 -118672375#2 118672382#0 118672382#1 -118672471#1 118672510#0 118672470#0"/>
    </vehicle>
    <vehicle id="bike16" type="bike_bicycle" depart="19.46" departLane="best">
        <route edges="118672270#3 118672486#0 118672486#1 -118555831#2 -118555831#1 -118555831#0 295842845#7 295842845#9 295842845#10 295842845#12 697028016#0 697028016#2 697028016#3 697028016#5 697210394"/>
    </vehicle>
    <vehicle id="bike17" type="bike_bicycle" depart="20.68" departLane="best">
        <route edges="-693841066#1 -118672391#2 -118672458#4 -118672458#3 -118555831#5 -118555831#4 -118555831#3 -118555831#2 -118555831#1 -118555831#0 -295842845#6 -828696689#1 -828696689#0 673151153#2 303500261#0 302751283#5 302751283#6 302751283#7 302765759#0 302765759#1 302765759#2 302765738#0 302765738#1 1280089210 1280089208#0 641403961 657772383#0 657772383#1 657772383#2 657772383#3 -302763996#4 -658076318#2 -118672253#8 -118672253#7 -118672375#5 -118672375#4 -118672375#3 -118672375#2"/>
    </vehicle>
    <vehicle id="bike18" type="bike_bicycle" depart="21.89" departLane="best" departSpeed="max">
        <route edges="405965999 303500261#0 302751283#5 302751283#6 302751283#7 302765759#0 302765759#1 302765759#2 302765738#0 302765738#1 1280089210 1280089208#0 641403961 657772383#0 657772383#1 657772383#2 657772383#3 -302763996#4 -658076318#2 -118672253#8 -118672253#7 -118672375#5 -118672375#4 -118672375#3 -118672375#2 118672382#0 -118672506#5 -118672506#4 -118672506#3 118672487#0"/>
    </vehicle>
    <vehicle id="bike19" type="bike_bicycle" depart="23.11" departLane="best">
        <route edges="643248612#1 676434621 -673151156#0 -118672470#4 -118672470#3 -118672470#2 -118672470#1 -118672470#0 118672510#1 118672495#3 118672495#4 118672495#5 118672495#6 -672811721#3 -118672432#1 -118672432#0"/>
    </vehicle>
    <vehicle id="bike21" type="bike_bicycle" depart="25.54" departLane="best" departSpeed="max">
        <route edges="-258076372 -258076370 -697028016#9 -697028016#7 -697028016#6 -697028016#5 -697028016#3 -697028016#2 -697028016#1 -295842845#13 -295842845#10 -295842845#9 -303500262#1"/>
    </vehicle>
    <vehicle id="bike22" type="bike_bicycle" depart="26.76" departLane="best">
        <route edges="-118672316#4 -118555831#7 693841066#2 693841066#3 693841066#4 302756236#4 302756236#5 118672508#0 118672508#1 -258076352"/>
    </vehicle>
    <vehicle id="bike23" type="bike_bicycle" depart="27.98" departLane="best">
        <route edges="-118672375#3 -118672501#0 -641463541 -641463542 118672253#8 658076318#2 302763996#4 -675771882 -657772383#2 -657772383#1 -657772383#0 -641403961 -1280089208#0 -1280089210 -302765756#1 -302765756#0 -303011136#2"/>
    </vehicle>
    <vehicle id="bike24" type="bike_bicycle" depart="29.19" departLane="best">
        <route edges="-118672470#3 -118672470#2 -118672470#1 -118672470#0 118672510#1 118672495#3 118672495#4 118672495#5 118672495#6 -672811721#3"/>
    </vehicle>
    <vehicle id="bike25" type="bike_bicycle" depart="30.41" departLane="best">
        <route edges="-673151156#1 -673151156#0 -118672290#4 -118672290#3 -118672290#2 -118672290#1 -118672290#0 1385690808#0 1385690808#1 658076318#0 658076318#1 658076318#2 302763996#4 -675771882 -657772383#2 -657772383#1 -657772383#0 -641403961 -1280089208#0 -1280089210"/>
    </vehicle>
    <vehicle id="bike27" type="bike_bicycle" depart="32.84" departLane="best">
        <route edges="118672486#2 118556995#7 673151165 303500262#0 303500262#1 405966001#0 405966001#1 405966001#2 -895442884 303500261#0 302751283#5 302751283#6 302751283#7 302765759#0 302765759#1 302765759#2 302765738#0 302765738#1 1280089210 1280089208#0 641403961 657772383#0 657772383#1 657772383#2 657772383#3 -302763996#4 -658076318#2 -118672253#8 -118672253#7 -118672375#5 -118672375#4 -118672375#3 -118672375#2 -118672375#1 118672433#1 118672433#2 118672433#3 118672470#4"/>
    </vehicle>
    <vehicle id="bike29" type="bike_bicycle" depart="35.28" departLane="best">
        <route edges="118672486#1 118672486#2 118556995#7 -673151163#0"/>
    </vehicle>
    <vehicle id="bike30" type="bike_bicycle" depart="36.49" departLane="best">
        <route edges="828696688 -828696689#0 673151153#2 303500261#0 302751283#5 302751283#6 302751283#7 302765759#0 302765759#1 302765759#2 302765738#0 302765738#1 1280089210 1280089208#0 641403961 657772383#0 657772383#1 657772383#2 657772383#3 -302763996#4 -658076318#2 -118672253#8 -118672253#7 -118672375#5 -118672375#4 -118672375#3 -118672375#2 118672382#0 -118672506#5 -118672506#4"/>
    </vehicle>
    <vehicle id="bike31" type="bike_bicycle" depart="37.71" departLane="best">
        <route edges="118672316#2 118672316#3 -118555831#7 693841066#2 693841066#3 693841066#4 302756236#4 302756236#5 302756236#6 302756236#7 302756236#8 302756236#9 302756236#10 694327029#0 694327029#1 697028016#0 258076337 -258076338#1"/>
    </vehicle>
    <vehicle id="bike32" type="bike_bicycle" depart="38.92" departLane="best">
        <route edges="641403959#0 641403959#1 302752531#2 302752531#3 658076483#0 305994979 305994987#1 305994987#2"/>
    </vehicle>
    <vehicle id="bike33" type="bike_bicycle" depart="40.14" departLane="best" departSpeed="max">
        <route edges="-258076372 -258076370 -697028016#9 -697028016#7 -697028016#6 -697028016#5 -697028016#3 -697028016#2 -697028016#1 -295842845#13 -295842845#10 -295842845#9 -295842845#7 118555831#0 118672230#3 118672230#4 118672230#5"/>
    </vehicle>
    <vehicle id="bike38" type="bike_bicycle" depart="46.22" departLane="best">
        <route edges="-676441605#2 -676441605#1 118555831#4"/>
    </vehicle>
    <vehicle id="bike40" type="bike_bicycle" depart="48.66" departLane="best">
        <route edges="118672330#2 118672375#5 118672253#7 118672253#8 658076318#2 -302763996#3 -302763996#2"/>
    </vehicle>
    <vehicle id="bike42" type="bike_bicycle" depart="51.09" departLane="best" departSpeed="max">
        <route edges="-695498644 -295842845#10 -295842845#9 405966001#0 405966001#1 405966001#2 -895442884 303500261#0 302751283#5 302751283#6 302751283#7 302765759#0 302765759#1 302765759#2 302765738#0 302765738#1 1280089210 -1280089209#1 -675771884#5 -1369563720"/>
    </vehicle>
    <vehicle id="bike43" type="bike_bicycle" depart="52.30" departLane="best">
        <route edges="895442884 -405966001#2 -405966001#1 -405966001#0 -295842845#7 -295842845#6 -295842845#5 118672270#0 118672270#1 118672270#2 118672270#3 118672270#4"/>
    </vehicle>
    <vehicle id="bike44" type="bike_bicycle" depart="53.52" departLane="best">
        <route edges="-118672349#5 118556995#0 118556995#1 118556995#2 118556995#3 118556995#4 118556995#5 118556995#6 118556995#7 673151165 303500262#0 303500262#1 405966001#0 405966001#1 405966001#2 -895442884 303500261#0 302751283#5 302751283#6 302751283#7 302765759#0 302765759#1 302765759#2 302765738#0 302765738#1 1280089210 1280089208#0 641403961 657772383#0 657772383#1 657772383#2 657772383#3 -302763996#4 -658076318#2 -118672253#8 -118672253#7 -118672253#6 -118672253#4 -118672253#3 -118672253#2 -118672253#1"/>
    </vehicle>
    <vehicle id="bike45" type="bike_bicycle" depart="54.74" departLane="best" departSpeed="max">
        <route edges="-118672382#3 118672495#4 118672495#5"/>
    </vehicle>
    <vehicle id="bike48" type="bike_bicycle" depart="58.39" departLane="best" departSpeed="max">
        <route edges="895441570 696463774#0 696463774#1 295842845#2 295842845#3 295842845#4 118672270#0 118672270#1 118672270#2 118672270#3 118672486#0 118672486#1 118555831#3 118555831#4 118555831#5 118555831#6 118555831#7 -118672316#3"/>
    </vehicle>
    <vehicle id="bike49" type="bike_bicycle" depart="59.60" departLane="best">
        <route edges="696463774#1 295842845#2 295842845#3 295842845#4 295842845#5 295842845#6 295842845#7 -303500262#1 -303500262#0 -118672230#0"/>
    </vehicle>
    <vehicle id="bike50" type="bike_bicycle" depart="60.82" departLane="best">
        <route edges="-118555831#7 -118555831#6 -118555831#5 -118555831#4 -118555831#3 -118555831#2 -118555831#1 -118555831#0 -295842845#6 -828696689#1 -828696689#0 673151153#2 303500261#0 302751283#5 302751283#6 302751283#7 302765759#0 302765759#1 302765759#2 302765738#0 302765738#1 1280089210 1280089208#0 641403961 657772383#0 657772383#1 657772383#2 657772383#3 302752531#0"/>
    </vehicle>
    <vehicle id="bike51" type="bike_bicycle" depart="62.04" departLane="best" departSpeed="max">
        <route edges="1207652542 -118555831#11 -118555831#10 -118672349#2"/>
    </vehicle>
    <vehicle id="bike52" type="bike_bicycle" depart="63.25" departLane="best" departSpeed="max">
        <route edges="-303011139 302765756#1 1280089210 1280089208#0 641403961 657772383#0 657772383#1 657772383#2 657772383#3 -302763996#4 -658076318#2 -118672253#8 -118672253#7 -118672375#5 -118672375#4 -118672375#3 -118672375#2 118672382#0 -118672506#5"/>
    </vehicle>
    <vehicle id="bike54" type="bike_bicycle" depart="65.68" departLane="best">
        <route edges="-828696688 -696463774#0 673151153#0 696463775"/>
    </vehicle>
    <vehicle id="bike55" type="bike_bicycle" depart="66.90" departLane="best">
        <route edges="658076318#0 658076318#1 658076318#2 -302763996#3 -302763996#2"/>
    </vehicle>
    <vehicle id="bike56" type="bike_bicycle" depart="68.12" departLane="best">
        <route edges="118556995#7 673151165 303500262#0 303500262#1 405966001#0 405966001#1 405966001#2 -895442884 303500261#0 302751283#5 302751283#6 302751283#7 302765759#0 302765759#1 302765759#2 302765738#0 302765738#1 1280089210 1280089208#0 641403961 657772383#0 657772383#1 657772383#2 657772383#3 -302763996#4 -658076318#2 -118672253#8 -118672253#7 -118672253#6 -118672253#4 -118672253#3 118672432#0 118672432#1 672811721#3 -118672495#6 -118672495#5"/>
    </vehicle>
    <vehicle id="bike57" type="bike_bicycle" depart="69.33" departLane="best">
        <route edges="676441605#0"/>
    </vehicle>
    <vehicle id="bike58" type="bike_bicycle" depart="70.55" departLane="best">
        <route edges="-641403957#1 641403960#0 641403960#1 641403959#1 -302752531#1 -302752531#0 -302763996#4 -658076318#2 -118672253#8 -118672253#7 -118672375#5 -118672375#4 -118672375#3 -118672375#2 118672382#0 -118672506#5 -118672506#4 -118672506#3"/>
    </vehicle>
    <vehicle id="bike59" type="bike_bicycle" depart="71.77" departLane="best">
        <route edges="118672432#2 118672383#3 -118672495#5 -118672495#4 -118672495#3 -118672495#2 -118672238#2 -118672470#0"/>
    </vehicle>
    <vehicle id="bike60" type="bike_bicycle" depart="72.98" departLane="best">
        <route edges="302756236#4 302756236#5 302756236#6 -676441605#3 -118672443#1 -118672443#0 -118672349#5 -118672349#4"/>
    </vehicle>
    <vehicle id="bike62" type="bike_bicycle" depart="75.42" departLane="best">
        <route edges="-118555831#0 -295842845#6 -828696689#1 -828696689#0 673151153#2 303500261#0 302751283#5 302751283#6 302751283#7 302765759#0 302765759#1 302765759#2 302765738#0 302765738#1 1280089210 1280089208#0 641403961 641403957#0"/>
    </vehicle>
    <vehicle id="bike63" type="bike_bicycle" depart="76.63" departLane="best">
        <route edges="118556995#3 118556995#4 118556995#5 118556995#6 118556995#7 673151165 118672230#1 695749017"/>
    </vehicle>
    <vehicle id="bike64" type="bike_bicycle" depart="77.85" departLane="best">
        <route edges="658076483#0 305994979 305994987#1 305994987#2 305994983#1 302765758#0 302765759#2 302765738#0 302765738#1 1280089210 1280089208#0 641403961 657772383#0 657772383#1 657772383#2 657772383#3 -302763996#4 -658076318#2 -658076318#1"/>
    </vehicle>
    <vehicle id="bike65" type="bike_bicycle" depart="79.07" departLane="best" departSpeed="max">
        <route edges="-641427732 -118672270#2 -118672270#1 -118672270#0"/>
    </vehicle>
    <vehicle id="bike67" type="bike_bicycle" depart="81.50" departLane="best">
        <route edges="-118672349#1 372298256#0 372298256#1 118672316#2 118672316#3 -118555831#7 693841066#2 693841066#3 693841066#4 693841066#7 693841066#9 118672241#1"/>
    </vehicle>
    <vehicle id="bike68" type="bike_bicycle" depart="82.71" departLane="best">
        <route edges="-118672304#1 118672351 -118672433#4 -118672433#3 -118672433#2 -118672433#1 -118672433#0 1385690808#1 658076318#0 658076318#1 658076318#2 302763996#4 -675771882 -657772383#2 -657772383#1 -657772383#0 -641403961 -1280089208#0 -1280089210 -302765738#1 -302765738#0 -303011140#1"/>
    </vehicle>
    <vehicle id="bike69" type="bike_bicycle" depart="83.93" departLane="best">
        <route edges="302756236#7 302756236#8 302756236#9 302756236#10 694327029#0 694327029#1 673195454#1 673195454#2 302751283#1 302751283#2 302751283#3 302751283#5 302751283#6 302751283#7 302765759#0 302765759#1 302765759#2 302765738#0 302765738#1 1280089210 1280089208#0 641403961 657772383#0 657772383#1 657772383#2 657772383#3 -302763996#4 -658076318#2 -118672253#8 -118672253#7 -118672375#5 -118672375#4 -118672375#3 -118672375#2 -118672375#1 118672433#1 118672433#2 118672433#3 118672433#4 -118672351 -118672304#0 -118672429"/>
    </vehicle>
    <vehicle id="bike70" type="bike_bicycle" depart="85.15" departLane="best" departSpeed="max">
        <route edges="-908405489 694327029#0 694327029#1 673195454#1 673195454#2 302751283#1 302751283#2 302751283#3 302751283#5 302751283#6 302751283#7 302765759#0 302765759#1 302765759#2 302765738#0 302765738#1 1280089210 1280089208#0 641403961 657772383#0 657772383#1 657772383#2 657772383#3 -302763996#4 -658076318#2 -118672253#8 -118672253#7 -118672375#5 -118672375#4 -118672375#3 -118672375#2 -118672375#1 -118672375#0"/>
    </vehicle>
    <vehicle id="bike72" type="bike_bicycle" depart="87.58" departLane="best" departSpeed="max">
        <route edges="-696235206 -118672270#0 295842845#5 -828696689#1 -828696689#0 673151153#2 303500261#0 302751283#5 302751283#6 302751283#7 302765759#0 302765759#1 302765759#2 302765738#0 302765738#1 1280089210 1280089208#0 641403961 657772383#0 657772383#1 657772383#2 657772383#3 -302763996#4 -658076318#2 -658076318#1 -658076318#0 1315633568"/>
    </vehicle>
    <vehicle id="bike75" type="bike_bicycle" depart="91.23" departLane="best" departSpeed="max">
        <route edges="895441570 696463774#0 696463774#1 295842845#2 295842845#3 295842845#4 118672270#0 118672270#1 118672270#2 118672270#3 118672486#0 118672486#1 118555831#3 118555831#4 118555831#5 118555831#6 118555831#7 118555831#8 118555831#9 -118672349#2 -118672349#1 -118672349#0 295853898#1 118672622#0"/>
    </vehicle>
    <vehicle id="bike76" type="bike_bicycle" depart="92.45" departLane="best">
        <route edges="-697028016#11 -697028016#10 -697028016#9 -697028016#7 -697028016#6 -697028016#5 -697028016#3 -697028016#2 -697028016#1 673195454#1 673195454#2 302751283#1 302751283#2 302751283#3 302751283#5 302751283#6 302751283#7 302765759#0 302765759#1 302765759#2 302765738#0 302765738#1 1280089210 1280089208#0 641403961 657772383#0 657772383#1 657772383#2 657772383#3 -302763996#4 -658076318#2 -118672253#8 -118672253#7 -118672375#5 -118672375#4 -118672375#3 -118672375#2 -118672375#1 118672433#1 118672433#2 118672433#3 118672433#4 118672433#5 118672429 118672304#0"/>
    </vehicle>
    <vehicle id="bike77" type="bike_bicycle" depart="93.66" departLane="best">
        <route edges="-118672410 118672312#3 118672312#4 118556995#5 676441605#2 676441605#3 302756236#7 302756236#8 302756236#9 302756236#10 694327029#0 694327029#1 697028016#0 258076337"/>
    </vehicle>
    <vehicle id="bike78" type="bike_bicycle" depart="94.88" departLane="best">
        <route edges="-658076318#1 -658076318#0 695635073 118672501#0 -118672375#2 -118672375#1 118672433#1 118672433#2 118672433#3 118672433#4 118672433#5 118672433#6"/>
    </vehicle>
    <vehicle id="bike79" type="bike_bicycle" depart="96.09" departLane="best">
        <route edges="-295842845#10 -295842845#9 405966001#0 405966001#1 405966001#2 -895442884 303500261#0 302751283#5 302751283#6 302751283#7 302765759#0 302765759#1 302765759#2 -303011140#1 -303011140#0 -1371895643#0"/>
    </vehicle>
    <vehicle id="bike80" type="bike_bicycle" depart="97.31" departLane="best">
        <route edges="118672312#1 -118555831#4 -118555831#3 -118555831#2 -118555831#1 -118555831#0 -295842845#6 -828696689#1 -828696689#0 673151153#2 303500261#0 302751283#5 302751283#6 302751283#7 302765759#0 302765759#1 302765759#2 302765738#0 302765738#1 1280089210 1280089208#0 641403961 657772383#0 657772383#1 657772383#2 657772383#3 -302763996#4 -658076318#2 -118672253#8 -118672253#7 -118672375#5 -118672375#4 -118672375#3 118672501#1"/>
    </vehicle>
    <vehicle id="bike81" type="bike_bicycle" depart="98.53" departLane="best" departSpeed="max">
        <route edges="-258076372 -258076370 -697028016#9 -697028016#7 -697028016#6 -697028016#5 -697028016#3 -697028016#2 258076337 695008820#0"/>
    </vehicle>
    <vehicle id="bike82" type="bike_bicycle" depart="99.74" departLane="best">
        <route edges="641463545 -302752531#3 -302752531#2 -302752531#1 -302752531#0 -302763996#4 -658076318#2 -118672253#8 -118672253#7 -118672375#5 -118672375#4 -118672375#3 -118672375#2 -118672375#1 118672433#1 118672433#2 118672433#3 118672470#4 -118672304#1"/>
    </vehicle>
    <vehicle id="bike83" type="bike_bicycle" depart="100.96" departLane="best">
        <route edges="-295842845#7 -295842845#6 -828696689#1 -828696689#0 673151153#2 303500261#0 302751283#5 302751283#6 302751283#7 302765759#0 302765759#1 302765759#2 302765738#0 302765738#1 1280089210 1280089208#0 1369563714"/>
    </vehicle>
    <vehicle id="bike84" type="bike_bicycle" depart="102.18" departLane="best" departSpeed="max">
        <route edges="-1371895643#1 303011140#0 303011140#1 302765738#0 302765738#1 1280089210 1280089208#0 641403961 657772383#0 657772383#1 657772383#2 657772383#3 -302763996#4 -658076318#2 -118672253#8 -118672253#7 -118672253#6 -118672253#4 -118672253#3 118672432#0 118672432#1 118672432#2"/>
    </vehicle>
    <vehicle id="bike85" type="bike_bicycle" depart="103.39" departLane="best">
        <route edges="-693841066#3 -693841066#2 -118555831#6 118672458#3 295853906#0 -295853905 118672391#1"/>
    </vehicle>
    <vehicle id="bike86" type="bike_bicycle" depart="104.61" departLane="best" departSpeed="max">
        <route edges="-896407942 -697028016#3 -697028016#2 -697028016#1 -295842845#13 -295842845#10 -295842845#9 405966001#0 405966001#1"/>
    </vehicle>
    <vehicle id="bike87" type="bike_bicycle" depart="105.83" departLane="best" departSpeed="max">
        <route edges="305994976 -675771884#1 -675771884#0 1369563715 -1369563714 641403961 657772383#0 657772383#1 657772383#2 657772383#3 -302763996#4 -658076318#2 -118672253#8 -118672253#7 -118672375#5 -118672375#4 -118672375#3 -118672375#2 118672382#0 -118672506#5"/>
    </vehicle>
    <vehicle id="bike89" type="bike_bicycle" depart="108.26" departLane="best" departSpeed="max">
        <route edges="-696235206 118672270#1 118672270#2 118672270#3 118672486#0 118672486#1 118555831#3 118555831#4 118555831#5 118555831#6 693841066#2 -118556995#2 -118556995#1 -118556995#0"/>
    </vehicle>
    <vehicle id="bike90" type="bike_bicycle" depart="109.47" departLane="best" departSpeed="max">
        <route edges="295842845#0 -696463774#1 -696463774#0 673151153#0 673151153#2 303500261#0 302751283#5 302751283#6 302751283#7 302765759#0 302765759#1 302765759#2 302765738#0 302765738#1 1280089210 1280089208#0 1369563716 1369563718"/>
    </vehicle>
    <vehicle id="bike91" type="bike_bicycle" depart="110.69" departLane="best">
        <route edges="-697028016#7 -697028016#6 -697028016#5 -697028016#3 -697028016#2 -697028016#1 673195454#1 673195454#2 302751283#1 302751283#2 302751283#3 302751283#5 302751283#6 302751283#7 302765759#0 302765759#1 302765759#2 302765738#0 302765738#1 1280089210 1280089208#0 641403961 657772383#0 657772383#1 657772383#2 657772383#3 -302763996#4 -658076318#2 -118672253#8 -118672253#7 -118672375#5 -118672375#4 -118672375#3 -118672375#2 -118672375#1 118672433#1 118672433#2 118672433#3 118672433#4 -118672351"/>
    </vehicle>
    <vehicle id="bike94" type="bike_bicycle" depart="114.34" departLane="best">
        <route edges="-118672508#1 118672241#3 118672241#4 118672241#5 118672241#6 -697028016#2 -697028016#1 -295842845#13 -295842845#10 -295842845#9 405966001#0 405966001#1 405966001#2 -895442884"/>
    </vehicle>
    <vehicle id="bike95" type="bike_bicycle" depart="115.56" departLane="best" departSpeed="max">
        <route edges="-696235206 -118672270#0 295842845#5 -828696689#1 -828696689#0 673151153#2 303500261#0 302751283#5 302751283#6 302751283#7 302765759#0 302765759#1 302765759#2 302765738#0 302765738#1 -302765756#1 -302765756#0 -303011136#2"/>
    </vehicle>
    <vehicle id="bike97" type="bike_bicycle" depart="117.99" departLane="best">
        <route edges="-697028016#6 -697028016#5 -697028016#3 -697028016#2 -697028016#1 673195454#1"/>
    </vehicle>
    <vehicle id="bike98" type="bike_bicycle" depart="119.21" departLane="best">
        <route edges="118672312#3 118672312#4 118556995#5 118556995#6 118556995#7 673151165 303500262#0 303500262#1 405966001#0 405966001#1 405966001#2 -895442884 303500261#0 302751283#5 302751283#6 302751283#7 302765759#0 302765759#1 302765759#2 302765738#0 302765738#1 1280089210 1280089208#0 641403961 657772383#0 657772383#1 657772383#2 657772383#3 -302763996#4 -658076318#2 -118672253#8 -118672253#7 -118672253#6 -118672253#4 -118672253#3"/>
    </vehicle>
    <vehicle id="bike99" type="bike_bicycle" depart="120.42" departLane="best">
        <route edges="895482086 -118672432#0 118672253#3 118672253#4 118672253#6 118672253#7 118672253#8 658076318#2 302763996#4 302752531#0 302752531#1 302752531#2 302752531#3 658076483#0 658076483#1"/>
    </vehicle>
    <vehicle id="bike100" type="bike_bicycle" depart="121.64" departLane="best">
        <route edges="696257601#1 -295842845#13 -295842845#10 -295842845#9 -295842845#7 -295842845#6 -295842845#5 -295842845#4 -295842845#3 695745891"/>
    </vehicle>
    <vehicle id="bike102" type="bike_bicycle" depart="124.07" departLane="best">
        <route edges="-118555831#5 -118555831#4 -118555831#3 -118555831#2 -118555831#1 -118555831#0 -295842845#6 -828696689#1 -828696689#0 673151153#2 303500261#0 302751283#5 302751283#6 302751283#7 302765759#0 302765759#1 302765759#2 302765738#0 302765738#1 1280089210 1280089208#0 1369563714"/>
    </vehicle>
    <vehicle id="bike103" type="bike_bicycle" depart="125.29" departLane="best" departSpeed="max">
        <route edges="-695500802 695496271#3 695496270#1 -676441605#3 118672443#2 673151165 118672230#1 118672230#2 118672230#3 118672230#4 118672230#5 -118672270#1"/>
    </vehicle>
    <vehicle id="bike104" type="bike_bicycle" depart="126.50" departLane="best">
        <route edges="693841066#1 693841066#2 693841066#3 693841066#4 693841066#7 895453352"/>
    </vehicle>
    <vehicle id="bike106" type="bike_bicycle" depart="128.94" departLane="best">
        <route edges="-828696689#0 673151153#2 303500261#0 302751283#5 302751283#6 302751283#7 302765759#0 302765759#1 302765759#2 302765738#0 302765738#1 1280089210 1280089208#0 641403961 657772383#0 657772383#1 657772383#2 657772383#3 -302763996#4 -658076318#2 -118672253#8 641463542 641463541 -695635073"/>
    </vehicle>
    <vehicle id="bike107" type="bike_bicycle" depart="130.15" departLane="best">
        <route edges="695496270#1 302756236#7 302756236#8 302756236#9 302756236#10 694327029#0 694327029#1 697028016#0 697028016#2 697028016#3 896407942"/>
    </vehicle>
    <vehicle id="bike108" type="bike_bicycle" depart="131.37" departLane="best">
        <route edges="118672316#1 118672316#2 118672316#3 -118555831#7 -118555831#6 -118555831#5 -118555831#4 -118555831#3 -118555831#2 -118555831#1 -118555831#0 -295842845#6 -828696689#1 -828696689#0 673151153#2 303500261#0 302751283#5 302751283#6"/>
    </vehicle>
    <vehicle id="bike109" type="bike_bicycle" depart="132.59" departLane="best">
        <route edges="-118672470#3 -118672487#0 118672506#3 118672506#4 118672506#5 -118672382#0 118672375#2 118672375#3 118672375#4 118672375#5 118672253#7 118672253#8 658076318#2 302763996#4 -675771882 -657772383#2 -657772383#1 -657772383#0 -641403961 1369563716 1369563717 1369563719 675771884#1 -305994981"/>
    </vehicle>
    <vehicle id="bike110" type="bike_bicycle" depart="133.80" departLane="best">