<?xml version="1.0" encoding="UTF-8"?>

<!-- generated on 2025-05-15 12:42:39.573357 by randomTrips.py v1_22_0+0002-63e50f52594
<configuration>
    <net-file value="osm.net.xml.gz"/>
    <output-trip-file value="osm.pedestrian.trips.xml"/>
    <route-file value="osm.pedestrian.rou.xml"/>
    <pedestrians value="True"/>
    <prefix value="ped"/>
    <vehicle-class value="pedestrian"/>
    <fringe-factor value="1"/>
    <max-distance value="2000.0"/>
    <insertion-density value="100.0"/>
</configuration>
-->

<routes xmlns:xsi="http://www.w3.org/2001/XMLSchema-instance" xsi:noNamespaceSchemaLocation="http://sumo.dlr.de/xsd/routes_file.xsd">
    <vType id="ped_pedestrian" vClass="pedestrian"/>
    <person id="ped0" depart="0.00" type="ped_pedestrian">
        <walk from="305994979" to="-1369563716"/>
    </person>
    <person id="ped1" depart="5.04" type="ped_pedestrian">
        <walk from="-675771884#5" to="-643248617#0"/>
    </person>
    <person id="ped2" depart="10.08" type="ped_pedestrian">
        <walk from="643248612#0" to="405965999"/>
    </person>
    <person id="ped3" depart="15.13" type="ped_pedestrian">
        <walk from="694334211#1" to="-303011142#1"/>
    </person>
    <person id="ped4" depart="20.17" type="ped_pedestrian">
        <walk from="1317865073" to="-1369563719"/>
    </person>
    <person id="ped5" depart="25.21" type="ped_pedestrian">
        <walk from="-643248615" to="1380180450#0"/>
    </person>
    <person id="ped6" depart="30.25" type="ped_pedestrian">
        <walk from="-1369563716" to="-641438982#1"/>
    </person>
    <person id="ped7" depart="35.29" type="ped_pedestrian">
        <walk from="305994983#0" to="302765760#1"/>
    </person>
    <person id="ped8" depart="40.33" type="ped_pedestrian">
        <walk from="-643248615" to="303011144"/>
    </person>
    <person id="ped9" depart="45.38" type="ped_pedestrian">
        <walk from="693839077#0" to="-118672429"/>
    </person>
    <person id="ped10" depart="50.42" type="ped_pedestrian">
        <walk from="693839077#0" to="405966001#2"/>
    </person>
    <person id="ped11" depart="55.46" type="ped_pedestrian">
        <walk from="-695503940" to="-405966000"/>
    </person>
    <person id="ped12" depart="60.50" type="ped_pedestrian">
        <walk from="697210393" to="-695500802"/>
    </person>
    <person id="ped13" depart="65.54" type="ped_pedestrian">
        <walk from="-303011144" to="-303011144"/>
    </person>
    <person id="ped14" depart="70.59" type="ped_pedestrian">
        <walk from="693839963#2" to="303011151"/>
    </person>
    <person id="ped15" depart="75.63" type="ped_pedestrian">
        <walk from="693839077#0" to="641438982#2"/>
    </person>
    <person id="ped16" depart="80.67" type="ped_pedestrian">
        <walk from="302765758#1" to="895455357"/>
    </person>
    <person id="ped17" depart="85.71" type="ped_pedestrian">
        <walk from="-895455357" to="303011136#0"/>
    </person>
    <person id="ped18" depart="90.75" type="ped_pedestrian">
        <walk from="693839962#0" to="305994973"/>
    </person>
    <person id="ped19" depart="95.79" type="ped_pedestrian">
        <walk from="694325798" to="303011142#1"/>
    </person>
    <person id="ped20" depart="100.84" type="ped_pedestrian">
        <walk from="641427732" to="-1371895643#1"/>
    </person>
    <person id="ped21" depart="105.88" type="ped_pedestrian">
        <walk from="-643248617#0" to="-694325798"/>
    </person>
    <person id="ped22" depart="110.92" type="ped_pedestrian">
        <walk from="-303011141" to="-643248617#1"/>
    </person>
    <person id="ped23" depart="115.96" type="ped_pedestrian">
        <walk from="-303011152" to="-675771884#5"/>
    </person>
    <person id="ped24" depart="121.00" type="ped_pedestrian">
        <walk from="305994979" to="-697210393"/>
    </person>
    <person id="ped25" depart="126.04" type="ped_pedestrian">
        <walk from="-697210394" to="-643248612#0"/>
    </person>
    <person id="ped26" depart="131.09" type="ped_pedestrian">
        <walk from="-675771884#3" to="696233973"/>
    </person>
    <person id="ped27" depart="136.13" type="ped_pedestrian">
        <walk from="305994983#0" to="303011152"/>
    </person>
    <person id="ped28" depart="141.17" type="ped_pedestrian">
        <walk from="-405966001#1" to="641438982#2"/>
    </person>
    <person id="ped29" depart="146.21" type="ped_pedestrian">
        <walk from="-405966001#0" to="-895455357"/>
    </person>
    <person id="ped30" depart="151.25" type="ped_pedestrian">
        <walk from="896407942" to="305994979"/>
    </person>
    <person id="ped31" depart="156.30" type="ped_pedestrian">
        <walk from="303011139" to="405966000"/>
    </person>
    <person id="ped32" depart="161.34" type="ped_pedestrian">
        <walk from="693839963#0" to="643248618#2"/>
    </person>
    <person id="ped33" depart="166.38" type="ped_pedestrian">
        <walk from="-643248617#1" to="-1369563719"/>
    </person>
    <person id="ped34" depart="171.42" type="ped_pedestrian">
        <walk from="-694339548" to="-675771884#3"/>
    </person>
    <person id="ped35" depart="176.46" type="ped_pedestrian">
        <walk from="-643248612#0" to="696463776"/>
    </person>
    <person id="ped36" depart="181.50" type="ped_pedestrian">
        <walk from="694327034" to="-694339548"/>
    </person>
    <person id="ped37" depart="186.55" type="ped_pedestrian">
        <walk from="305994983#1" to="-896407942"/>
    </person>
    <person id="ped38" depart="191.59" type="ped_pedestrian">
        <walk from="695008820#1" to="1369563719"/>
    </person>
    <person id="ped39" depart="196.63" type="ped_pedestrian">
        <walk from="-675771884#3" to="-643248618#2"/>
    </person>
    <person id="ped40" depart="201.67" type="ped_pedestrian">
        <walk from="303011140#0" to="-675771884#1"/>
    </person>
    <person id="ped41" depart="206.71" type="ped_pedestrian">
        <walk from="303011143" to="694334212"/>
    </person>
    <person id="ped42" depart="211.76" type="ped_pedestrian">
        <walk from="-896407942" to="-643248615"/>
    </person>
    <person id="ped43" depart="216.80" type="ped_pedestrian">
        <walk from="908405489" to="1380180450#1"/>
    </person>
    <person id="ped44" depart="221.84" type="ped_pedestrian">
        <walk from="-303011142#1" to="-1371895643#1"/>
    </person>
    <person id="ped45" depart="226.88" type="ped_pedestrian">
        <walk from="-305994976" to="305994976"/>
    </person>
    <person id="ped46" depart="231.92" type="ped_pedestrian">
        <walk from="675771884#4" to="1317865073"/>
    </person>
    <person id="ped47" depart="236.96" type="ped_pedestrian">
        <walk from="-303011140#0" to="-895455357"/>
    </person>
    <person id="ped48" depart="242.01" type="ped_pedestrian">
        <walk from="908405489" to="302765758#0"/>
    </person>
    <person id="ped49" depart="247.05" type="ped_pedestrian">
        <walk from="895453352" to="694325798"/>
    </person>
    <person id="ped50" depart="252.09" type="ped_pedestrian">
        <walk from="-1317865073" to="641438982#1"/>
    </person>
    <person id="ped51" depart="257.13" type="ped_pedestrian">
        <walk from="405966000" to="302765758#1"/>
    </person>
    <person id="ped52" depart="262.17" type="ped_pedestrian">
        <walk from="-675771884#3" to="305994981"/>
    </person>
    <person id="ped53" depart="267.22" type="ped_pedestrian">
        <walk from="-305994976" to="1369563715"/>
    </person>
    <person id="ped54" depart="272.26" type="ped_pedestrian">
        <walk from="1369563718" to="696463779"/>
    </person>
    <person id="ped55" depart="277.30" type="ped_pedestrian">
        <walk from="694327034" to="-675771884#3"/>
    </person>
    <person id="ped56" depart="282.34" type="ped_pedestrian">
        <walk from="1380180449#1" to="-641427732"/>
    </person>
    <person id="ped57" depart="287.38" type="ped_pedestrian">
        <walk from="695008820#0" to="694327033"/>
    </person>
    <person id="ped58" depart="292.42" type="ped_pedestrian">
        <walk from="-694334210#0" to="305994979"/>
    </person>
    <person id="ped59" depart="297.47" type="ped_pedestrian">
        <walk from="303011152" to="-405965999"/>
    </person>
    <person id="ped60" depart="302.51" type="ped_pedestrian">
        <walk from="643248617#2" to="302765760#0"/>
    </person>
    <person id="ped61" depart="307.55" type="ped_pedestrian">
        <walk from="675771884#1" to="302765758#0"/>
    </person>
    <person id="ped62" depart="312.59" type="ped_pedestrian">
        <walk from="-118672351" to="-695008820#0"/>
    </person>
    <person id="ped63" depart="317.63" type="ped_pedestrian">
        <walk from="-1369563714" to="695503940"/>
    </person>
    <person id="ped64" depart="322.68" type="ped_pedestrian">
        <walk from="694327034" to="693839962#0"/>
    </person>
    <person id="ped65" depart="327.72" type="ped_pedestrian">
        <walk from="-694334211#0" to="-303011139"/>
    </person>
    <person id="ped66" depart="332.76" type="ped_pedestrian">
        <walk from="694327034" to="696463776"/>
    </person>
    <person id="ped67" depart="337.80" type="ped_pedestrian">
        <walk from="-303011142#0" to="1380180448#1"/>
    </person>
    <person id="ped68" depart="342.84" type="ped_pedestrian">
        <walk from="-303011140#1" to="643248617#2"/>
    </person>
    <person id="ped69" depart="347.88" type="ped_pedestrian">
        <walk from="643248618#0" to="-305994983#1"/>
    </person>
    <person id="ped70" depart="352.93" type="ped_pedestrian">
        <walk from="1371895643#1" to="303011136#0"/>
    </person>
    <person id="ped71" depart="357.97" type="ped_pedestrian">
        <walk from="-675771884#3" to="694327033"/>
    </person>
    <person id="ped72" depart="363.01" type="ped_pedestrian">
        <walk from="1369563713" to="-643248612#1"/>
    </person>
    <person id="ped73" depart="368.05" type="ped_pedestrian">
        <walk from="302765760#0" to="641438982#2"/>
    </person>
    <person id="ped74" depart="373.09" type="ped_pedestrian">
        <walk from="-641438982#2" to="-694334211#1"/>
    </person>
    <person id="ped75" depart="378.13" type="ped_pedestrian">
        <walk from="908405489" to="305994983#0"/>
    </person>
    <person id="ped76" depart="383.18" type="ped_pedestrian">
        <walk from="1369563715" to="302765746"/>
    </person>
    <person id="ped77" depart="388.22" type="ped_pedestrian">
        <walk from="-305994983#0" to="-643248617#0"/>
    </person>
    <person id="ped78" depart="393.26" type="ped_pedestrian">
        <walk from="-695503940" to="303011143"/>
    </person>
    <person id="ped79" depart="398.30" type="ped_pedestrian">
        <walk from="-643248617#1" to="-643248615"/>
    </person>
    <person id="ped80" depart="403.34" type="ped_pedestrian">
        <walk from="-303011140#1" to="305994977"/>
    </person>
    <person id="ped81" depart="408.39" type="ped_pedestrian">
        <walk from="-643248617#1" to="694339548"/>
    </person>
    <person id="ped82" depart="413.43" type="ped_pedestrian">
        <walk from="694325798" to="-303011140#1"/>
    </person>
    <person id="ped83" depart="418.47" type="ped_pedestrian">
        <walk from="-643248617#2" to="305994987#2"/>
    </person>
    <person id="ped84" depart="423.51" type="ped_pedestrian">
        <walk from="-643248612#1" to="-305994987#0"/>
    </person>
    <person id="ped85" depart="428.55" type="ped_pedestrian">
        <walk from="696233973" to="303011140#1"/>
    </person>
    <person id="ped86" depart="433.59" type="ped_pedestrian">
        <walk from="1371895643#0" to="675771884#3"/>
    </person>
    <person id="ped87" depart="438.64" type="ped_pedestrian">
        <walk from="693839077#0" to="-641438982#0"/>
    </person>
    <person id="ped88" depart="443.68" type="ped_pedestrian">
        <walk from="-303011144" to="1369563714"/>
    </person>
    <person id="ped89" depart="448.72" type="ped_pedestrian">
        <walk from="1369563713" to="1369563720"/>
    </person>
    <person id="ped90" depart="453.76" type="ped_pedestrian">
        <walk from="641438982#2" to="305994987#2"/>
    </person>
    <person id="ped91" depart="458.80" type="ped_pedestrian">
        <walk from="896406507" to="-303011152"/>
    </person>
    <person id="ped92" depart="463.85" type="ped_pedestrian">
        <walk from="-908405489" to="-695503940"/>
    </person>
    <person id="ped93" depart="468.89" type="ped_pedestrian">
        <walk from="694325798" to="-643248618#2"/>
    </person>
    <person id="ped94" depart="473.93" type="ped_pedestrian">
        <walk from="-641438982#0" to="1369563717"/>
    </person>
    <person id="ped95" depart="478.97" type="ped_pedestrian">
        <walk from="1317865073" to="-675771884#5"/>
    </person>
    <person id="ped96" depart="484.01" type="ped_pedestrian">
        <walk from="-643248618#2" to="695500802"/>
    </person>
    <person id="ped97" depart="489.05" type="ped_pedestrian">
        <walk from="1369563716" to="694325798"/>
    </person>
    <person id="ped98" depart="494.10" type="ped_pedestrian">
        <walk from="303011136#0" to="-1371895643#1"/>
    </person>
    <person id="ped99" depart="499.14" type="ped_pedestrian">
        <walk from="908405489" to="693839962#2"/>
    </person>
    <person id="ped100" depart="504.18" type="ped_pedestrian">
        <walk from="895453352" to="695503940"/>
    </person>
    <person id="ped101" depart="509.22" type="ped_pedestrian">
        <walk from="693839963#2" to="-405966001#1"/>
    </person>
    <person id="ped102" depart="514.26" type="ped_pedestrian">
        <walk from="1380180448#0" to="-643248612#1"/>
    </person>
    <person id="ped103" depart="519.31" type="ped_pedestrian">
        <walk from="-908405489" to="-303011139"/>
    </person>
    <person id="ped104" depart="524.35" type="ped_pedestrian">
        <walk from="-895455357" to="896406507"/>
    </person>
    <person id="ped105" depart="529.39" type="ped_pedestrian">
        <walk from="-675771884#3" to="675771884#3"/>
    </person>
    <person id="ped106" depart="534.43" type="ped_pedestrian">
        <walk from="1369563718" to="1369563713"/>
    </person>
    <person id="ped107" depart="539.47" type="ped_pedestrian">
        <walk from="697210393" to="908405489"/>
    </person>
    <person id="ped108" depart="544.51" type="ped_pedestrian">
        <walk from="303011139" to="641438982#0"/>
    </person>
    <person id="ped109" depart="549.56" type="ped_pedestrian">
        <walk from="-405966000" to="-694334209"/>
    </person>
    <person id="ped110" depart="554.60" type="ped_pedestrian">
        <walk from="895453352" to="303011142#1"/>
    </person>
    <person id="ped111" depart="559.64" type="ped_pedestrian">
        <walk from="302765760#0" to="643248615"/>
    </person>
    <person id="ped112" depart="564.68" type="ped_pedestrian">
        <walk from="-303011139" to="303011143"/>
    </person>
    <person id="ped113" depart="569.72" type="ped_pedestrian">
        <walk from="1380180449#1" to="693840161"/>
    </person>
    <person id="ped114" depart="574.76" type="ped_pedestrian">
        <walk from="-405966000" to="697210394"/>
    </person>
    <person id="ped115" depart="579.81" type="ped_pedestrian">
        <walk from="-303011142#0" to="-641438981"/>
    </person>
    <person id="ped116" depart="584.85" type="ped_pedestrian">
        <walk from="303011150" to="405965999"/>
    </person>
    <person id="ped117" depart="589.89" type="ped_pedestrian">
        <walk from="-643248617#2" to="-305994981"/>
    </person>
    <person id="ped118" depart="594.93" type="ped_pedestrian">
        <walk from="694334210#1" to="-643248618#2"/>
    </person>
    <person id="ped119" depart="599.97" type="ped_pedestrian">
        <walk from="303011150" to="305994973"/>
    </person>
    <person id="ped120" depart="605.02" type="ped_pedestrian">
        <walk from="1317865073" to="303011143"/>
    </person>
    <person id="ped121" depart="610.06" type="ped_pedestrian">
        <walk from="302765748" to="696233973"/>
    </person>
    <person id="ped122" depart="615.10" type="ped_pedestrian">
        <walk from="-641438982#2" to="641438982#0"/>
    </person>
    <person id="ped123" depart="620.14" type="ped_pedestrian">
        <walk from="-643248617#2" to="-896407942"/>
    </person>
    <person id="ped124" depart="625.18" type="ped_pedestrian">
        <walk from="305994987#2" to="-694334210#0"/>
    </person>
    <person id="ped125" depart="630.22" type="ped_pedestrian">
        <walk from="-694339548" to="643248617#0"/>
    </person>
    <person id="ped126" depart="635.27" type="ped_pedestrian">
        <walk from="-303011140#1" to="1369563719"/>
    </person>
    <person id="ped127" depart="640.31" type="ped_pedestrian">
        <walk from="908405489" to="908405489"/>
    </person>
    <person id="ped128" depart="645.35" type="ped_pedestrian">
        <walk from="-303011140#1" to="-643248612#1"/>
    </person>
    <person id="ped129" depart="650.39" type="ped_pedestrian">
        <walk from="-675771884#3" to="696233973"/>
    </person>
    <person id="ped130" depart="655.43" type="ped_pedestrian">
        <walk from="694334209" to="694327034"/>
    </person>
    <person id="ped131" depart="660.48" type="ped_pedestrian">
        <walk from="-697210394" to="-405966000"/>
    </person>
    <person id="ped132" depart="665.52" type="ped_pedestrian">
        <walk from="693839962#0" to="641427732"/>
    </person>
    <person id="ped133" depart="670.56" type="ped_pedestrian">
        <walk from="303499564" to="896406507"/>
    </person>
    <person id="ped134" depart="675.60" type="ped_pedestrian">
        <walk from="305994983#1" to="-118672429"/>
    </person>
    <person id="ped135" depart="680.64" type="ped_pedestrian">
        <walk from="693839077#2" to="-694334210#0"/>
    </person>
    <person id="ped136" depart="685.68" type="ped_pedestrian">
        <walk from="305994987#1" to="696463775"/>
    </person>
    <person id="ped137" depart="690.73" type="ped_pedestrian">
        <walk from="-305994987#0" to="-305994981"/>
    </person>
    <person id="ped138" depart="695.77" type="ped_pedestrian">
        <walk from="-305994973" to="303011136#0"/>
    </person>
    <person id="ped139" depart="700.81" type="ped_pedestrian">
        <walk from="-675771884#4" to="303011151"/>
    </person>
    <person id="ped140" depart="705.85" type="ped_pedestrian">
        <walk from="641438982#0" to="-641438982#2"/>
    </person>
    <person id="ped141" depart="710.89" type="ped_pedestrian">
        <walk from="305994977" to="-675771884#3"/>
    </person>
    <person id="ped142" depart="715.94" type="ped_pedestrian">
        <walk from="1380180448#1" to="694339548"/>
    </person>
    <person id="ped143" depart="720.98" type="ped_pedestrian">
        <walk from="693839963#2" to="-303011144"/>
    </person>
    <person id="ped144" depart="726.02" type="ped_pedestrian">
        <walk from="1369563713" to="-675771884#5"/>
    </person>
    <person id="ped145" depart="731.06" type="ped_pedestrian">
        <walk from="-118672351" to="643248618#0"/>
    </person>
    <person id="ped146" depart="736.10" type="ped_pedestrian">
        <walk from="305994979" to="-675771884#1"/>
    </person>
    <person id="ped147" depart="741.14" type="ped_pedestrian">
        <walk from="643248612#1" to="303011136#0"/>
    </person>
    <person id="ped148" depart="746.19" type="ped_pedestrian">
        <walk from="1369563713" to="-118672429"/>
    </person>
    <person id="ped149" depart="751.23" type="ped_pedestrian">
        <walk from="-303011141" to="694334209"/>
    </person>
    <person id="ped150" depart="756.27" type="ped_pedestrian">
        <walk from="694339548" to="302765760#1"/>
    </person>
    <person id="ped151" depart="761.31" type="ped_pedestrian">
        <walk from="693839962#2" to="303011142#1"/>
    </person>
    <person id="ped152" depart="766.35" type="ped_pedestrian">
        <walk from="-305994987#2" to="-305994983#1"/>
    </person>
    <person id="ped153" depart="771.40" type="ped_pedestrian">
        <walk from="-694334211#0" to="694334212"/>
    </person>
    <person id="ped154" depart="776.44" type="ped_pedestrian">
        <walk from="675771884#5" to="694325798"/>
    </person>
    <person id="ped155" depart="781.48" type="ped_pedestrian">
        <walk from="694334212" to="-643248612#0"/>
    </person>
    <person id="ped156" depart="786.52" type="ped_pedestrian">
        <walk from="-643248618#2" to="-303011152"/>
    </person>
    <person id="ped157" depart="791.56" type="ped_pedestrian">
        <walk from="675771884#1" to="694334209"/>
    </person>
    <person id="ped158" depart="796.60" type="ped_pedestrian">
        <walk from="118672351" to="305994973"/>
    </person>
    <person id="ped159" depart="801.65" type="ped_pedestrian">
        <walk from="-405966000" to="695503940"/>
    </person>
    <person id="ped160" depart="806.69" type="ped_pedestrian">
        <walk from="694327032" to="895455357"/>
    </person>
    <person id="ped161" depart="811.73" type="ped_pedestrian">
        <walk from="693839077#0" to="694334209"/>
    </person>
    <person id="ped162" depart="816.77" type="ped_pedestrian">
        <walk from="-1369563716" to="643248612#0"/>
    </person>
    <person id="ped163" depart="821.81" type="ped_pedestrian">
        <walk from="-695500802" to="695503940"/>
    </person>
    <person id="ped164" depart="826.85" type="ped_pedestrian">
        <walk from="676434621" to="694327032"/>
    </person>
    <person id="ped165" depart="831.90" type="ped_pedestrian">
        <walk from="693839077#0" to="-675771884#3"/>
    </person>
    <person id="ped166" depart="836.94" type="ped_pedestrian">
        <walk from="675771884#3" to="-305994973"/>
    </person>
    <person id="ped167" depart="841.98" type="ped_pedestrian">
        <walk from="694327033" to="694325798"/>
    </person>
    <person id="ped168" depart="847.02" type="ped_pedestrian">
        <walk from="-643248615" to="693839077#2"/>
    </person>
    <person id="ped169" depart="852.06" type="ped_pedestrian">
        <walk from="1369563719" to="-694334211#0"/>
    </person>
    <person id="ped170" depart="857.11" type="ped_pedestrian">
        <walk from="675771884#5" to="-643248617#0"/>
    </person>
    <person id="ped171" depart="862.15" type="ped_pedestrian">
        <walk from="-1369563716" to="-641438982#0"/>
    </person>
    <person id="ped172" depart="867.19" type="ped_pedestrian">
        <walk from="-695008820#1" to="694327032"/>
    </person>
    <person id="ped173" depart="872.23" type="ped_pedestrian">
        <walk from="895453352" to="-675771884#5"/>
    </person>
    <person id="ped174" depart="877.27" type="ped_pedestrian">
        <walk from="305994981" to="-896407942"/>
    </person>
    <person id="ped175" depart="882.31" type="ped_pedestrian">
        <walk from="896403995" to="302765758#1"/>
    </person>
    <person id="ped176" depart="887.36" type="ped_pedestrian">
        <walk from="696463775" to="-305994981"/>
    </person>
    <person id="ped177" depart="892.40" type="ped_pedestrian">
        <walk from="895453352" to="-641427732"/>
    </person>
    <person id="ped178" depart="897.44" type="ped_pedestrian">
        <walk from="697210394" to="-675771884#3"/>
    </person>
    <person id="ped179" depart="902.48" type="ped_pedestrian">
        <walk from="-305994973" to="1369563715"/>
    </person>
    <person id="ped180" depart="907.52" type="ped_pedestrian">
        <walk from="641438982#2" to="-694334211#1"/>
    </person>
    <person id="ped181" depart="912.57" type="ped_pedestrian">
        <walk from="303011152" to="1380180450#1"/>
    </person>
    <person id="ped182" depart="917.61" type="ped_pedestrian">
        <walk from="-896403995" to="303011141"/>
    </person>
    <person id="ped183" depart="922.65" type="ped_pedestrian">
        <walk from="-675771884#0" to="641438981"/>
    </person>
    <person id="ped184" depart="927.69" type="ped_pedestrian">
        <walk from="-118672351" to="695500802"/>
    </person>
    <person id="ped185" depart="932.73" type="ped_pedestrian">
        <walk from="302765760#0" to="641438982#0"/>
    </person>
    <person id="ped186" depart="937.77" type="ped_pedestrian">
        <walk from="643248612#1" to="305994987#2"/>
    </person>
    <person id="ped187" depart="942.82" type="ped_pedestrian">
        <walk from="-697210393" to="-303011140#1"/>
    </person>
    <person id="ped188" depart="947.86" type="ped_pedestrian">
        <walk from="305994987#1" to="-695008820#1"/>
    </person>
    <person id="ped189" depart="952.90" type="ped_pedestrian">
        <walk from="-694334211#1" to="693839963#2"/>
    </person>
    <person id="ped190" depart="957.94" type="ped_pedestrian">
        <walk from="641438982#0" to="-694334210#0"/>
    </person>
    <person id="ped191" depart="962.98" type="ped_pedestrian">
        <walk from="-694334211#1" to="118672351"/>
    </person>
    <person id="ped192" depart="968.03" type="ped_pedestrian">
        <walk from="-908405489" to="-694334209"/>
    </person>
    <person id="ped193" depart="973.07" type="ped_pedestrian">
        <walk from="-305994983#1" to="1317865073"/>
    </person>
    <person id="ped194" depart="978.11" type="ped_pedestrian">
        <walk from="696463775" to="405965999"/>
    </person>
    <person id="ped195" depart="983.15" type="ped_pedestrian">
        <walk from="694334212" to="303499564"/>
    </person>
    <person id="ped196" depart="988.19" type="ped_pedestrian">
        <walk from="-694334210#0" to="302765760#1"/>
    </person>
    <person id="ped197" depart="993.23" type="ped_pedestrian">
        <walk from="-118672351" to="-694325798"/>
    </person>
    <person id="ped198" depart="998.28" type="ped_pedestrian">
        <walk from="1369563714" to="303011142#1"/>
    </person>
    <person id="ped199" depart="1003.32" type="ped_pedestrian">
        <walk from="305994983#1" to="1369563720"/>
    </person>
    <person id="ped200" depart="1008.36" type="ped_pedestrian">
        <walk from="1369563716" to="-643248612#1"/>
    </person>
    <person id="ped201" depart="1013.40" type="ped_pedestrian">
        <walk from="1371895643#0" to="694334212"/>
    </person>
    <person id="ped202" depart="1018.44" type="ped_pedestrian">
        <walk from="675771884#5" to="-405966001#1"/>
    </person>
    <person id="ped203" depart="1023.48" type="ped_pedestrian">
        <walk from="-303011142#0" to="302765746"/>
    </person>
    <person id="ped204" depart="1028.53" type="ped_pedestrian">
        <walk from="305994977" to="-695500802"/>
    </person>
    <person id="ped205" depart="1033.57" type="ped_pedestrian">
        <walk from="693839961#2" to="643248617#0"/>
    </person>
    <person id="ped206" depart="1038.61" type="ped_pedestrian">
        <walk from="305994987#2" to="-643248617#0"/>
    </person>
    <person id="ped207" depart="1043.65" type="ped_pedestrian">
        <walk from="-641438982#1" to="-1369563716"/>
    </person>
    <person id="ped208" depart="1048.69" type="ped_pedestrian">
        <walk from="-643248618#1" to="1371895643#1"/>
    </person>
    <person id="ped209" depart="1053.74" type="ped_pedestrian">
        <walk from="693839963#2" to="-303011140#1"/>
    </person>
    <person id="ped210" depart="1058.78" type="ped_pedestrian">
        <walk from="118672429" to="305994977"/>
    </person>
    <person id="ped211" depart="1063.82" type="ped_pedestrian">
        <walk from="-641438982#1" to="405966001#1"/>
    </person>
    <person id="ped212" depart="1068.86" type="ped_pedestrian">
        <walk from="1380180449#0" to="-643248618#1"/>
    </person>
    <person id="ped213" depart="1073.90" type="ped_pedestrian">
        <walk from="305994983#1" to="-118672351"/>
    </person>
    <person id="ped214" depart="1078.94" type="ped_pedestrian">
        <walk from="643248617#0" to="643248618#0"/>
    </person>
    <person id="ped215" depart="1083.99" type="ped_pedestrian">
        <walk from="-305994973" to="1369563713"/>
    </person>
    <person id="ped216" depart="1089.03" type="ped_pedestrian">
        <walk from="-405966001#2" to="697210393"/>
    </person>
    <person id="ped217" depart="1094.07" type="ped_pedestrian">
        <walk from="302765746" to="-1371895643#1"/>
    </person>
    <person id="ped218" depart="1099.11" type="ped_pedestrian">
        <walk from="-643248618#2" to="693839963#2"/>
    </person>
    <person id="ped219" depart="1104.15" type="ped_pedestrian">
        <walk from="1369563718" to="676434621"/>
    </person>
    <person id="ped220" depart="1109.20" type="ped_pedestrian">
        <walk from="305994987#1" to="896406507"/>
    </person>
    <person id="ped221" depart="1114.24" type="ped_pedestrian">
        <walk from="303011150" to="696463779"/>
    </person>
    <person id="ped222" depart="1119.28" type="ped_pedestrian">
        <walk from="694334210#1" to="303499564"/>
    </person>
    <person id="ped223" depart="1124.32" type="ped_pedestrian">
        <walk from="641438982#0" to="1380180450#0"/>
    </person>
    <person id="ped224" depart="1129.36" type="ped_pedestrian">
        <walk from="693839962#0" to="302765760#1"/>
    </person>
    <person id="ped225" depart="1134.40" type="ped_pedestrian">
        <walk from="694334212" to="643248615"/>
    </person>
    <person id="ped226" depart="1139.45" type="ped_pedestrian">
        <walk from="1371895643#1" to="-675771884#1"/>
    </person>
    <person id="ped227" depart="1144.49" type="ped_pedestrian">
        <walk from="-643248618#2" to="305994979"/>
    </person>
    <person id="ped228" depart="1149.53" type="ped_pedestrian">
        <walk from="643248618#0" to="302765748"/>
    </person>
    <person id="ped229" depart="1154.57" type="ped_pedestrian">