<?xml version="1.0" encoding="UTF-8"?>

<!-- generated on 2025-05-15 12:42:41.014379 by randomTrips.py v1_22_0+0002-63e50f52594
<configuration>
    <net-file value="osm.net.xml.gz"/>
    <output-trip-file value="osm.truck.trips.xml"/>
    <route-file value="osm.truck.rou.xml"/>
    <prefix value="truck"/>
    <trip-attributes value="departLane=&quot;best&quot;"/>
    <fringe-start-attributes value="departSpeed=&quot;max&quot;"/>
    <vehicle-class value="truck"/>
    <fringe-factor value="5"/>
    <vclass value="truck"/>
    <via-edge-types value="highway.motorway,highway.motorway_link,highway.trunk_link,highway.primary_link,highway.secondary_link,highway.tertiary_link"/>
    <min-distance value="600.0"/>
    <min-distance.fringe value="100.0"/>
    <remove-loops value="True"/>
    <validate value="True"/>
    <insertion-density value="80.0"/>
</configuration>
-->

<!-- generated on 2025-05-15 12:42:40 by Eclipse SUMO duarouter Version 1.22.0
<duarouterConfiguration xmlns:xsi="http://www.w3.org/2001/XMLSchema-instance" xsi:noNamespaceSchemaLocation="http://sumo.dlr.de/xsd/duarouterConfiguration.xsd">

    <input>
        <net-file value="osm.net.xml.gz"/>
        <route-files value="osm.truck.trips.xml"/>
    </input>

    <output>
        <output-file value="osm.truck.rou.xml"/>
        <alternatives-output value="NUL"/>
    </output>

    <processing>
        <remove-loops value="true"/>
    </processing>

    <time>
        <begin value="0.0"/>
        <end value="3600.0"/>
    </time>

    <report>
        <no-warnings value="true"/>
        <ignore-errors value="true"/>
        <no-step-log value="true"/>
    </report>

</duarouterConfiguration>
-->

<routes xmlns:xsi="http://www.w3.org/2001/XMLSchema-instance" xsi:noNamespaceSchemaLocation="http://sumo.dlr.de/xsd/routes_file.xsd">
    <vType id="truck_truck" vClass="truck"/>
    <vehicle id="truck0" type="truck_truck" depart="0.00" departLane="best">
        <route edges="118672471#1 -118672382#1 -118672506#5 -118672506#4 -118672506#3 -118672506#2 -118672506#1 -118672506#0 693810829#4 693810829#5 693810829#6 1282340721#1 696257601#0 696257601#1 -295842845#13 -295842845#10 -295842845#9 -303500262#1 -303500262#0 -118672230#0 -118556995#7"/>
    </vehicle>
    <vehicle id="truck1" type="truck_truck" depart="0.91" departLane="best">
        <route edges="302765738#0 302765738#1 1280089210 -1280089209#1 -1280089209#0 658076483#0 658076483#1 658076483#2 658318010 673195455#0 673195455#1 673195455#2 1282340721#1 696257601#0 696257601#1 695496271#0 695496271#2 695496271#3 695496270#1 695838784#0 695838784#1 695838784#4 -118672349#6 -118672349#5 -118672349#4 -118672423#1 -118672622#2"/>
    </vehicle>
    <vehicle id="truck2" type="truck_truck" depart="1.81" departLane="best">
        <route edges="258076350 -258076367 -697028016#7 -697028016#6 -697028016#5 -697028016#3 -697028016#2 -697028016#1 673195454#1 673195454#2 199383484#1 199383484#2 199383484#3 697020756 1385690808#0"/>
    </vehicle>
    <vehicle id="truck3" type="truck_truck" depart="2.72" departLane="best">
        <route edges="-118672623 -118672458#0 118556995#4 118556995#5 676441605#2 676441605#3 302756236#7 302756236#8 302756236#9 302756236#10 694327029#0 694327029#1 697028016#0 697028016#2 697028016#3 697028016#5 697028016#6 697028016#7 697210392 -673151156#3 -673151156#2 -673151156#1 -673151156#0 -118672304#1 -118672304#0"/>
    </vehicle>
    <vehicle id="truck4" type="truck_truck" depart="3.63" departLane="best">
        <route edges="673151165 303500262#0 303500262#1 295842845#9 295842845#10 295842845#12 673195454#1 673195454#2 199383484#1 199383484#2 199383484#3 1385690809#0 -1315633568 695635073 118672501#0 118672501#1 -118672495#4"/>
    </vehicle>
    <vehicle id="truck5" type="truck_truck" depart="4.53" departLane="best">
        <route edges="118672486#0 118672486#1 -118555831#2 -118555831#1 -118555831#0 295842845#7 295842845#9 295842845#10 295842845#12 673195454#1 673195454#2 199383484#1 199383484#2 199383484#3 1385690809#0 -1315633568 695635073 118672501#0 118672375#3 118672375#4 118672375#5"/>
    </vehicle>
    <vehicle id="truck6" type="truck_truck" depart="5.44" departLane="best">
        <route edges="-1280089208#0 -1280089209#1 -1280089209#0 658076483#0 658076483#1 658076483#2 658318010 673195455#0 673195455#1 673195455#2 1282340721#1 696257601#0 696257601#1 695496271#0 695496271#2 695496271#3 695496270#1 -676441605#3 118672443#2"/>
    </vehicle>
    <vehicle id="truck7" type="truck_truck" depart="6.35" departLane="best">
        <route edges="302765738#1 1280089210 -1280089209#1 -1280089209#0 658076483#0 658076483#1 658076483#2 658318010 673195455#0 673195455#1 673195455#2 1282340721#1 696257601#0 696257601#1 697028016#0 697028016#2 697028016#3 697028016#5 697028016#6 697028016#7 697028016#9 258076370"/>
    </vehicle>
    <vehicle id="truck8" type="truck_truck" depart="7.25" departLane="best" departSpeed="max">
        <route edges="-673151154#1 -673151154#0 258076338#1 -258076337 -697028016#1 695496271#0 695496271#2 695496271#3 695496270#1 695838784#0 695838784#1 -693841066#5 -118672443#0"/>
    </vehicle>
    <vehicle id="truck9" type="truck_truck" depart="8.16" departLane="best">
        <route edges="693841066#4 302756236#4 302756236#5 302756236#6 302756236#7 302756236#8 302756236#9 302756236#10 694327029#0 694327029#1 673195454#1 673195454#2 199383484#1 199383484#2 199383484#3 1385690809#0 -1315633568 658076318#0 118672330#0 118672330#2 118672330#3 672811721#1 -641433845#0"/>
    </vehicle>
    <vehicle id="truck10" type="truck_truck" depart="9.07" departLane="best">
        <route edges="641463542 641463541 118672501#0 -118672375#2 118672382#0 -118672506#5 -118672506#4 118672446#0 118672470#2"/>
    </vehicle>
    <vehicle id="truck11" type="truck_truck" depart="9.98" departLane="best" departSpeed="max">
        <route edges="-695498644 295842845#12 673195454#1 673195454#2 199383484#1 199383484#2 199383484#3 697020756 118672290#0 118672290#1 118672506#1 118672506#2 118672506#3 118672506#4 118672506#5 118672382#1 118672382#2 118672382#3"/>
    </vehicle>
    <vehicle id="truck12" type="truck_truck" depart="10.88" departLane="best">
        <route edges="118672316#1 118672316#2 118672316#3 -118555831#7 -118555831#6 -118555831#5 -118555831#4 -118555831#3 -118555831#2 -118555831#1 -118555831#0 -295842845#6 -828696689#1 -828696689#0 673151153#2 303500261#0 302751283#5 302751283#6 302751283#7 302765759#0 302765759#1 302765759#2 302765738#0 302765738#1 1280089210 -1280089209#1 -1280089209#0"/>
    </vehicle>
    <vehicle id="truck13" type="truck_truck" depart="11.79" departLane="best">
        <route edges="-118672375#0 118672290#1 -118672506#0 693810829#4 693810829#5 693810829#6 1282340721#1 696257601#0 696257601#1 695496271#0 695496271#2 695496271#3 695496270#1 -676441605#3 -676441605#2 -676441605#1 118555831#4 -118672312#1 -295853906#1 -295853905"/>
    </vehicle>
    <vehicle id="truck14" type="truck_truck" depart="12.70" departLane="best">
        <route edges="-693841066#3 118556995#3 118556995#4 118556995#5 676441605#2 676441605#3 302756236#7 302756236#8 302756236#9 302756236#10 694327029#0 694327029#1 673195454#1 673195454#2 199383484#1 199383484#2 199383484#3 697020756 118672290#0 118672290#1 118672506#1 118672506#2 118672506#3 118672506#4"/>
    </vehicle>
    <vehicle id="truck15" type="truck_truck" depart="13.60" departLane="best">
        <route edges="302752531#2 302752531#3 658076483#0 658076483#1 658076483#2 658318010 673195455#0 673195455#1 673195455#2 1282340721#1 696257601#0 696257601#1 -295842845#13 -295842845#10 -295842845#9 -303500262#1 695749390"/>
    </vehicle>
    <vehicle id="truck16" type="truck_truck" depart="14.51" departLane="best">
        <route edges="118672484#3 -697028016#11 -697028016#10 -697028016#9 697210392 -673151156#3 -673151156#2 -673151156#1 -673151156#0 -118672470#4 -118672470#3 -118672470#2 -118672470#1 -118672238#1 118672471#0 118672471#1"/>
    </vehicle>
    <vehicle id="truck17" type="truck_truck" depart="15.42" departLane="best">
        <route edges="-118672471#1 -118672471#0 -118672238#0 -118672506#4 -118672506#3 -118672506#2 -118672506#1 -118672506#0 693810829#4 693810829#5 693810829#6 302751283#1 302751283#2 302751283#3 302751283#5"/>
    </vehicle>
    <vehicle id="truck18" type="truck_truck" depart="16.32" departLane="best" departSpeed="max">
        <route edges="828696690 118672622#1 118672622#2 118672423#1 118672349#4 118672349#5 118672349#6 302756236#1 302756236#4 302756236#5 302756236#6 302756236#7 302756236#8 302756236#9 302756236#10 694327029#0 694327029#1 673195454#1 673195454#2 199383484#1 199383484#2 199383484#3 697020756 118672290#0 118672290#1 118672506#1 118672506#2"/>
    </vehicle>
    <vehicle id="truck19" type="truck_truck" depart="17.23" departLane="best">
        <route edges="641433845#0 -672811721#1 672811720#1 672811720#3 302763996#2 302763996#3 302763996#4 -675771882 -657772383#2 -657772383#1 -657772383#0 -641403961 -1280089208#0 -1280089210 -302765756#1 -302765756#0"/>
    </vehicle>
    <vehicle id="truck20" type="truck_truck" depart="18.14" departLane="best">
        <route edges="-641463541 118672330#2 -118672375#4 -118672375#3 -118672375#2 -118672375#1 118672433#1 -118672506#1 -118672506#0 693810829#4 693810829#5 693810829#6 1282340721#1 696257601#0 696257601#1 -295842845#13 -295842845#10 -295842845#9 -295842845#7 -295842845#6 -295842845#5 -295842845#4 -295842845#3"/>
    </vehicle>
    <vehicle id="truck21" type="truck_truck" depart="19.04" departLane="best">
        <route edges="-118672510#1 -118672510#0 -118672471#0 -118672238#0 -118672506#4 -118672506#3 -118672506#2 -118672506#1 -118672506#0 693810829#4 693810829#5 693810829#6 1282340721#1 696257601#0 696257601#1 695496271#0 695496271#2 695496271#3 695496270#1 695838784#0 695838784#1 695838784#4 695838782#1"/>
    </vehicle>
    <vehicle id="truck22" type="truck_truck" depart="19.95" departLane="best">
        <route edges="-673151154#0 258076338#1 -258076337 -697028016#1 695496271#0 695496271#2 695496271#3 695496270#1 695838784#0 695838784#1 -693841066#5 -693841066#3 -693841066#2 118555831#7 -118672316#3 -118672617#1 -372298257"/>
    </vehicle>
    <vehicle id="truck23" type="truck_truck" depart="20.86" departLane="best">
        <route edges="118672495#0 -118672446#1 -118672446#0 -118672506#3 -118672506#2 -118672506#1 -118672506#0 693810829#4 693810829#5 693810829#6 1282340721#1 696257601#0 696257601#1 697028016#0 697028016#2 -118672241#6 -118672241#5 -118672241#4 -118672241#3 -118672241#2 -118672241#1 -693841066#9 -693841066#8"/>
    </vehicle>
    <vehicle id="truck24" type="truck_truck" depart="21.76" departLane="best">
        <route edges="302752531#0 302752531#1 302752531#2 302752531#3 658076483#0 658076483#1 658076483#2 658318010 673195455#0 673195455#1 673195455#2 1282340721#1 696257601#0 696257601#1 697028016#0 258076337 -258076338#1 -258076338#0"/>
    </vehicle>
    <vehicle id="truck25" type="truck_truck" depart="22.67" departLane="best">
        <route edges="118672382#2 -118672495#3 -118672495#2 -118672238#2 -118672238#1 -118672238#0 -118672506#4 -118672506#3 -118672506#2 -118672506#1 -118672506#0 693810829#4 693810829#5 693810829#6 1282340721#1 696257601#0 696257601#1 695496271#0 695496271#2 695496271#3 695496270#1"/>
    </vehicle>
    <vehicle id="truck26" type="truck_truck" depart="23.58" departLane="best" departSpeed="max">
        <route edges="895441570 696463774#0 696463774#1 295842845#2 295842845#3 295842845#4 295842845#5 295842845#6 118555831#0 118555831#1 118555831#2 118555831#3 118555831#4 118555831#5 118555831#6 118555831#7 118555831#8 118555831#9 118672349#3 118672349#4"/>
    </vehicle>
    <vehicle id="truck27" type="truck_truck" depart="24.48" departLane="best">
        <route edges="118672617#1 118672316#3 -118555831#7 693841066#2 693841066#3 693841066#4 302756236#4 302756236#5 302756236#6 302756236#7 302756236#8 302756236#9 302756236#10 694327029#0 694327029#1 697028016#0 697028016#2 697028016#3 697028016#5 697028016#6 697028016#7 697210392 693810829#0 118672369#0 118672369#1"/>
    </vehicle>
    <vehicle id="truck28" type="truck_truck" depart="25.39" departLane="best">
        <route edges="-118672382#2 -118672382#1 -118672506#5 -118672506#4 -118672506#3 -118672506#2 -118672506#1 -118672506#0 693810829#4 693810829#5 693810829#6 302751283#1 302751283#2 302751283#3 693819571#3 -405966002 -895442884"/>
    </vehicle>
    <vehicle id="truck29" type="truck_truck" depart="26.30" departLane="best">
        <route edges="295853898#0 118672349#0 118672349#1 118672349#2 118672349#3 118672349#4 118672349#5 118672349#6 302756236#1 302756236#4 302756236#5 302756236#6 302756236#7 302756236#8 302756236#9 302756236#10 694327029#0 694327029#1 673195454#1 673195454#2 199383484#1 199383484#2 199383484#3 697020756 118672290#0 118672375#0 118672375#1"/>
    </vehicle>
    <vehicle id="truck30" type="truck_truck" depart="27.21" departLane="best">
        <route edges="302752531#1 302752531#2 302752531#3 658076483#0 658076483#1 658076483#2 658318010 673195455#0 673195455#1 673195455#2 1282340721#1 696257601#0 696257601#1 695496271#0 695496271#2 695496271#3 695496270#1 695838784#0 695838784#1 -693841066#5 -693841066#3 -118556995#2 -118556995#1 -118556995#0 118672349#5"/>
    </vehicle>
    <vehicle id="truck31" type="truck_truck" depart="28.11" departLane="best">
        <route edges="-673151156#1 -673151156#0 -118672470#4 -118672470#3 118672487#1 118672495#0 118672495#1 118672495#2 118672495#3 118672495#4 118672495#5 118672495#6 672811721#4"/>
    </vehicle>
    <vehicle id="truck32" type="truck_truck" depart="29.02" departLane="best">
        <route edges="673151156#1 673151156#2 673151156#3 693810829#0 693810829#2 693810829#3 693810829#4 693810829#5 693810829#6 1282340721#1 696257601#0 696257601#1 695496271#0 695496271#2 695496271#3 695496270#1 695838784#0 695838784#1 695838784#4 695838782#1"/>
    </vehicle>
    <vehicle id="truck33" type="truck_truck" depart="29.93" departLane="best">
        <route edges="295853905 295853906#1 118672312#1 -118555831#4 676441605#1 676441605#2 676441605#3 302756236#7 302756236#8 302756236#9 302756236#10 694327029#0 694327029#1 673195454#1 673195454#2 199383484#1 199383484#2 199383484#3 1385690809#0 -1315633568 695635073 118672501#0 118672501#1 118672495#5 -118672383#3"/>
    </vehicle>
    <vehicle id="truck34" type="truck_truck" depart="30.83" departLane="best">
        <route edges="118556995#0 118556995#1 118556995#2 693841066#3 693841066#4 302756236#4 302756236#5 302756236#6 302756236#7 302756236#8 302756236#9 302756236#10 694327029#0 694327029#1 673195454#1 673195454#2 199383484#1 199383484#2 199383484#3 697020756 118672290#0 118672290#1 118672506#1 118672506#2 118672506#3 118672506#4 118672506#5 118672382#1 118672382#2 118672382#3"/>
    </vehicle>
    <vehicle id="truck35" type="truck_truck" depart="31.74" departLane="best">
        <route edges="-302752531#0 -302763996#4 -658076318#2 -118672253#8 -118672253#7 -118672375#5 -118672375#4 -118672375#3 -118672375#2 -118672375#1 118672433#1 -118672506#1 -118672506#0 693810829#4 693810829#5 693810829#6"/>
    </vehicle>
    <vehicle id="truck36" type="truck_truck" depart="32.65" departLane="best" departSpeed="max">
        <route edges="-696241306 -118672230#3 -118555831#0 295842845#7 295842845#9 295842845#10 295842845#12 673195454#1 673195454#2 199383484#1 199383484#2 199383484#3 697020756 118672290#0 118672375#0 118672375#1 118672382#0 -118672506#5"/>
    </vehicle>
    <vehicle id="truck37" type="truck_truck" depart="33.55" departLane="best">
        <route edges="-118672506#1 -118672506#0 693810829#4 693810829#5 693810829#6 1282340721#1 696257601#0 696257601#1 695496271#0 695496271#2 695496271#3 695496270#1 695838784#0 695838784#1 -693841066#5 -693841066#3 -693841066#2 118555831#7 -118672316#3 -118672316#2 -372298256#1 -372298256#0"/>
    </vehicle>
    <vehicle id="truck38" type="truck_truck" depart="34.46" departLane="best" departSpeed="max">
        <route edges="895441570 696463774#0 696463774#1 295842845#2 295842845#3 295842845#4 295842845#5 295842845#6 118555831#0 118555831#1 118555831#2 118555831#3 118555831#4 118555831#5 118555831#6 118555831#7 118555831#8 118555831#9 -118672349#2 118672617#0"/>
    </vehicle>
    <vehicle id="truck39" type="truck_truck" depart="35.37" departLane="best">
        <route edges="-118672383#2 -118672383#1 -118672383#0 -118672375#3 -118672375#2 -118672375#1 118672433#1 -118672506#1 -118672506#0 693810829#4 693810829#5 693810829#6 1282340721#1 696257601#0 696257601#1 695496271#0 695496271#2 695496271#3 695496270#1 -676441605#3 -676441605#2 -118556995#5 -118672312#4 -118672623"/>
    </vehicle>
    <vehicle id="truck40" type="truck_truck" depart="36.27" departLane="best">
        <route edges="-258076337 -697028016#1 695496271#0 695496271#2 695496271#3 695496270#1 695838784#0 695838784#1 695838784#4 -118672349#6 -118672349#5 -118672349#4 -118672423#1 -118672622#2 -118672622#1 -118672622#0"/>
    </vehicle>
    <vehicle id="truck41" type="truck_truck" depart="37.18" departLane="best">
        <route edges="693841066#7 693841066#9 118672241#1 118672241#2 118672241#3 118672241#4 118672241#5 118672241#6 -697028016#2 -697028016#1 673195454#1 673195454#2 199383484#1 199383484#2 199383484#3 1385690809#0 -1315633568 658076318#0 118672330#0 118672330#2 118672330#3 672811721#1 -641433845#0 -118672253#3 118672432#0 118672432#1"/>
    </vehicle>
    <vehicle id="truck42" type="truck_truck" depart="38.09" departLane="best" departSpeed="max">
        <route edges="258076338#0 258076338#1 -258076337 -697028016#1 673195454#1 673195454#2 302751283#1 302751283#2 302751283#3 302751283#5 302751283#6 302751283#7 302765759#0 302765759#1 302765759#2 302765738#0 302765738#1 1280089210 1280089208#0 641403961 657772383#0 657772383#1 657772383#2 1381019928#0"/>
    </vehicle>
    <vehicle id="truck43" type="truck_truck" depart="38.99" departLane="best">
        <route edges="828696689#1 295842845#6 295842845#7 295842845#9 295842845#10 295842845#12 673195454#1 673195454#2 199383484#1 199383484#2 199383484#3 1385690809#0 -1315633568 695635073 118672501#0 118672375#3 118672375#4 -118672330#2"/>
    </vehicle>
    <vehicle id="truck44" type="truck_truck" depart="39.90" departLane="best" departSpeed="max">
        <route edges="-695749017 -118672230#1 303500262#0 303500262#1 295842845#9 295842845#10 295842845#12 673195454#1 673195454#2 199383484#1 199383484#2 199383484#3 1385690809#0 -1315633568 695635073 -641463541"/>
    </vehicle>
    <vehicle id="truck45" type="truck_truck" depart="40.81" departLane="best">
        <route edges="118672501#0 -118672375#2 -118672375#1 118672433#1 -118672506#1 -118672506#0 693810829#4 693810829#5 693810829#6 1282340721#1 696257601#0 696257601#1 695496271#0 695496271#2 695496271#3 695496270#1 695838784#0 695838784#1 -693841066#5 -693841066#3 -693841066#2 118555831#7"/>
    </vehicle>
    <vehicle id="truck46" type="truck_truck" depart="41.71" departLane="best">
        <route edges="118672316#1 118672316#2 118672316#3 -118555831#7 693841066#2 693841066#3 693841066#4 302756236#4 302756236#5 302756236#6 302756236#7 302756236#8 302756236#9 302756236#10 694327029#0 694327029#1 697028016#0 697028016#2 -118672241#6"/>
    </vehicle>
    <vehicle id="truck47" type="truck_truck" depart="42.62" departLane="best">
        <route edges="895482086 118672432#1 118672432#2 -118672383#2 -118672383#1 -118672383#0 -118672375#3 -118672375#2 -118672375#1 118672433#1 -118672506#1 -118672506#0 693810829#4 693810829#5 693810829#6 302751283#1 302751283#2 302751283#3 -303500261#0 -673151153#2"/>
    </vehicle>
    <vehicle id="truck48" type="truck_truck" depart="43.53" departLane="best">
        <route edges="697028016#11 -118672484#4 -258076371 -258076370 -697028016#9 -697028016#7 -697028016#6 -697028016#5 -697028016#3 -697028016#2 -697028016#1 -295842845#13 -295842845#10 -295842845#9 -295842845#7 -295842845#6 -295842845#5 -295842845#4 -295842845#3 695745891"/>
    </vehicle>
    <vehicle id="truck49" type="truck_truck" depart="44.44" departLane="best">
        <route edges="641463545 658076483#0 658076483#1 658076483#2 658318010 673195455#0 673195455#1 673195455#2 1282340721#1 696257601#0 696257601#1 695496271#0 695496271#2 695496271#3 695496270#1 -676441605#3 -676441605#2 -676441605#1 118555831#4 -118672312#1 -295853906#1 -295853906#0 -118672458#3"/>
    </vehicle>
    <vehicle id="truck50" type="truck_truck" depart="45.34" departLane="best" departSpeed="max">
        <route edges="-695745891 295842845#3 295842845#4 295842845#5 295842845#6 295842845#7 295842845#9 295842845#10 295842845#12 673195454#1 673195454#2 199383484#1 199383484#2 199383484#3 1385690809#0 -1315633568 658076318#0 658076318#1 -118672253#8 -118672253#7 -118672253#6"/>
    </vehicle>
    <vehicle id="truck51" type="truck_truck" depart="46.25" departLane="best">
        <route edges="302752531#0 302752531#1 302752531#2 302752531#3 658076483#0 658076483#1 658076483#2 658318010 673195455#0 673195455#1 673195455#2 1282340721#1 696257601#0 696257601#1 -295842845#13 -295842845#10 -295842845#9 -303500262#1 -303500262#0"/>
    </vehicle>
    <vehicle id="truck52" type="truck_truck" depart="47.16" departLane="best">
        <route edges="118672330#0 118672330#2 -118672375#4 -118672375#3 -118672375#2 -118672375#1 118672433#1 -118672506#1 -118672506#0 693810829#4 693810829#5 693810829#6 1282340721#1 696257601#0 696257601#1 695496271#0 695496271#2 695496271#3 695496270#1 695838784#0 695838784#1 -693841066#5 -693841066#3 -693841066#2 118555831#7 -118672316#3 -118672316#2 -118672316#1 295853898#0"/>
    </vehicle>
    <vehicle id="truck53" type="truck_truck" depart="48.06" departLane="best">
        <route edges="-118672453 -118555831#8 -118555831#7 -118555831#6 -118555831#5 -118555831#4 -118555831#3 -118555831#2 -118555831#1 -118555831#0 -295842845#6 -828696689#1 -828696689#0 673151153#2 303500261#0 302751283#5 302751283#6 302751283#7 302765759#0 302765759#1 302765759#2 302765738#0 302765738#1 -302765756#1"/>
    </vehicle>
    <vehicle id="truck54" type="truck_truck" depart="48.97" departLane="best">
        <route edges="118672316#1 118672316#2 118672316#3 -118555831#7 693841066#2 693841066#3 693841066#4 302756236#4 302756236#5 302756236#6 302756236#7 302756236#8 302756236#9 302756236#10 694327029#0 694327029#1 697028016#0 697028016#2 697028016#3 697028016#5 697028016#6 697028016#7 697028016#9 697028016#10 697028016#11 -118672484#4"/>
    </vehicle>
    <vehicle id="truck55" type="truck_truck" depart="49.88" departLane="best">
        <route edges="118672391#2 693841066#1 -118555831#6 -118555831#5 -118555831#4 -118555831#3 -118555831#2 -118555831#1 -118555831#0 -295842845#6 -828696689#1 -828696689#0 673151153#2 303500261#0 302751283#5 302751283#6 302751283#7 302765759#0 302765759#1 302765759#2 302765738#0 302765738#1 1280089210 1280089208#0 641403961 657772383#0 657772383#1 657772383#2 1381019928#0 1381019928#1"/>
    </vehicle>
    <vehicle id="truck56" type="truck_truck" depart="50.78" departLane="best">
        <route edges="-258076352 -258076367 697210392 693810829#0 693810829#2 693810829#3 118672506#0 118672506#1 -118672433#1 118672375#1 118672375#2 118672375#3 118672375#4 118672375#5"/>
    </vehicle>
    <vehicle id="truck57" type="truck_truck" depart="51.69" departLane="best">
        <route edges="118672391#2 693841066#1 693841066#2 693841066#3 693841066#4 302756236#4 302756236#5 302756236#6 302756236#7 302756236#8 302756236#9 302756236#10 694327029#0 694327029#1 697028016#0 697028016#2 697028016#3 697028016#5 697028016#6 697028016#7 697210392 -673151156#3 -673151156#2 -673151156#1 -673151156#0 -118672470#4 -118672470#3 118672487#1 118672495#0"/>
    </vehicle>
    <vehicle id="truck58" type="truck_truck" depart="52.60" departLane="best" departSpeed="max">
        <route edges="-696235206 -118672270#0 295842845#5 295842845#6 295842845#7 295842845#9 295842845#10 295842845#12 697028016#0 697028016#2 697028016#3 697028016#5 697028016#6 697028016#7 697210392 -673151156#3 -673151156#2 -673151156#1 -673151156#0 -118672470#4 118672433#4 118672433#5 118672433#6"/>
    </vehicle>
    <vehicle id="truck59" type="truck_truck" depart="53.50" departLane="best">
        <route edges="-118672506#4 -118672506#3 -118672506#2 -118672506#1 -118672506#0 693810829#4 693810829#5 693810829#6 1282340721#1 696257601#0 696257601#1 -295842845#13 -295842845#10 -295842845#9 -295842845#7"/>
    </vehicle>
    <vehicle id="truck60" type="truck_truck" depart="54.41" departLane="best">
        <route edges="-641463542 -118672253#7 -118672375#5 -118672375#4 -118672375#3 -118672375#2 -118672375#1 118672433#1 -118672506#1 -118672506#0 693810829#4 693810829#5 693810829#6 302763977#1 302763977#2 302763977#3"/>
    </vehicle>
    <vehicle id="truck61" type="truck_truck" depart="55.32" departLane="best">
        <route edges="118672304#1 -118672290#4 -118672290#3 -118672259 693810829#3 693810829#4 693810829#5 693810829#6 1282340721#1 696257601#0 696257601#1 695496271#0 695496271#2 695496271#3 695496270#1 695838784#0 695838784#1 -693841066#5 -693841066#3 118556995#3 118556995#4"/>
    </vehicle>
    <vehicle id="truck62" type="truck_truck" depart="56.22" departLane="best">
        <route edges="302752531#0 302752531#1 302752531#2 302752531#3 658076483#0 658076483#1 658076483#2 658318010 673195455#0 673195455#1 673195455#2 1282340721#1 696257601#0 696257601#1 -295842845#13 -295842845#10 -295842845#9 -303500262#1 -303500262#0 118672230#1 695749017"/>
    </vehicle>
    <vehicle id="truck63" type="truck_truck" depart="57.13" departLane="best">
        <route edges="-693841066#3 118556995#3 118556995#4 118556995#5 676441605#2 676441605#3 302756236#7 302756236#8 302756236#9 302756236#10 694327029#0 694327029#1 697028016#0 697028016#2 697028016#3 697028016#5 697028016#6 697028016#7 697210392 -673151156#3 -673151156#2 -673151156#1 -673151156#0 -118672470#4 -118672470#3 -118672470#2 -118672446#0"/>
    </vehicle>
    <vehicle id="truck64" type="truck_truck" depart="58.04" departLane="best">
        <route edges="641403958 -657772383#0 -641403961 -1280089208#0 -1280089209#1 -1280089209#0 658076483#0 658076483#1 658076483#2 658318010 673195455#0 673195455#1 673195455#2 1282340721#1 696257601#0 696257601#1 697028016#0 697028016#2 697028016#3 697028016#5 697028016#6 697028016#7 697028016#9 258076370 258076372"/>
    </vehicle>
    <vehicle id="truck65" type="truck_truck" depart="58.95" departLane="best">
        <route edges="118672487#0 118672470#3 -118672433#3 -118672433#2 -118672506#1 -118672506#0 693810829#4 693810829#5 693810829#6 1282340721#1 696257601#0 696257601#1 695496271#0 695496271#2 695496271#3 695496270#1 -676441605#3 -676441605#2 -118556995#5 -118672312#4 -118672312#3 -118672312#2 -118555831#4"/>
    </vehicle>
    <vehicle id="truck66" type="truck_truck" depart="59.85" departLane="best">
        <route edges="320528140#1 118672241#4 118672241#5 118672241#6 -697028016#2 -697028016#1 673195454#1 673195454#2 302751283#1 302751283#2 302751283#3 302751283#5 302751283#6 302751283#7 302765759#0"/>
    </vehicle>
    <vehicle id="truck67" type="truck_truck" depart="60.76" departLane="best">
        <route edges="-118672495#6 -118672495#5 -118672495#4 -118672382#2 -118672382#1 -118672506#5 -118672506#4 -118672506#3 -118672506#2 -118672506#1 -118672506#0 693810829#4 693810829#5 693810829#6 1282340721#1 696257601#0 696257601#1 -295842845#13 -295842845#10 -295842845#9 -303500262#1 695749390"/>
    </vehicle>
    <vehicle id="truck68" type="truck_truck" depart="61.67" departLane="best">
        <route edges="-302763996#3 -302763996#2 118672359#0 -118672253#4 -118672253#3 118672432#0 118672432#1 672811721#3 -118672495#6 -118672495#5 -118672495#4 -118672495#3 -118672510#1 118672470#0 118672470#1 118672470#2 118672470#3"/>
    </vehicle>
    <vehicle id="truck69" type="truck_truck" depart="62.57" departLane="best">
        <route edges="641463541 118672501#0 -118672375#2 -118672375#1 118672433#1 -118672506#1 -118672506#0 693810829#4 693810829#5 693810829#6 1282340721#1 696257601#0 696257601#1 695496271#0 695496271#2 695496271#3 695496270#1 695838784#0 695838784#1 -693841066#5 -693841066#3 -693841066#2 118555831#7 -118672316#3 -118672316#2 -118672316#1"/>
    </vehicle>
    <vehicle id="truck70" type="truck_truck" depart="63.48" departLane="best">
        <route edges="-118555831#10 -118555831#9 -118555831#8 -118555831#7 -118555831#6 -118555831#5 -118555831#4 -118555831#3 -118555831#2 -118555831#1 -118555831#0 -295842845#6 -828696689#1 -828696689#0 673151153#2 303500261#0 302751283#5 302751283#6 302751283#7 302765759#0 302765759#1 302765759#2 302765738#0 302765738#1 1280089210 302765740"/>
    </vehicle>
    <vehicle id="truck71" type="truck_truck" depart="64.39" departLane="best">
        <route edges="118672470#4 673151156#0 673151156#1 673151156#2 673151156#3 693810829#0 693810829#2 693810829#3 693810829#4 693810829#5 693810829#6 1282340721#1 696257601#0 696257601#1 -295842845#13 -295842845#10 -295842845#9 -295842845#7 -295842845#6 -295842845#5 -295842845#4 -295842845#3 -295842845#2 -295842845#0"/>
    </vehicle>
    <vehicle id="truck72" type="truck_truck" depart="65.29" departLane="best">
        <route edges="-258076370 -697028016#9 697210392 -673151156#3 -673151156#2 -673151156#1 -673151156#0 -118672470#4 -118672470#3 118672487#1 118672495#0 118672495#1 118672495#2 118672495#3 118672382#3"/>
    </vehicle>
    <vehicle id="truck73" type="truck_truck" depart="66.20" departLane="best">
        <route edges="641403958 -657772383#0 -641403961 -1280089208#0 -1280089209#1 -1280089209#0 658076483#0 658076483#1 658076483#2 658318010 673195455#0 673195455#1 673195455#2 199383484#1 199383484#2 199383484#3 697020756 118672290#0 118672290#1 118672506#1 118672433#2 118672433#3 118672433#4 118672433#5 118672433#6"/>
    </vehicle>
    <vehicle id="truck74" type="truck_truck" depart="67.11" departLane="best">