<?xml version="1.0" encoding="UTF-8"?>

<!-- generated on 2025-05-15 12:42:41.694257 by randomTrips.py v1_22_0+0002-63e50f52594
<configuration>
    <net-file value="osm.net.xml.gz"/>
    <output-trip-file value="osm.truck.trips.xml"/>
    <route-file value="osm.truck.rou.xml"/>
    <prefix value="truck"/>
    <trip-attributes value="departLane=&quot;best&quot;"/>
    <fringe-start-attributes value="departSpeed=&quot;max&quot;"/>
    <vehicle-class value="truck"/>
    <fringe-factor value="5"/>
    <vclass value="truck"/>
    <via-edge-types value="highway.motorway,highway.motorway_link,highway.trunk_link,highway.primary_link,highway.secondary_link,highway.tertiary_link"/>
    <min-distance value="600.0"/>
    <min-distance.fringe value="100.0"/>
    <remove-loops value="True"/>
    <validate value="True"/>
    <insertion-density value="80.0"/>
</configuration>
-->

<!-- generated on 2025-05-15 12:42:41 by Eclipse SUMO duarouter Version 1.22.0
<duarouterConfiguration xmlns:xsi="http://www.w3.org/2001/XMLSchema-instance" xsi:noNamespaceSchemaLocation="http://sumo.dlr.de/xsd/duarouterConfiguration.xsd">

    <input>
        <net-file value="osm.net.xml.gz"/>
        <route-files value="osm.truck.trips.xml"/>
    </input>

    <output>
        <output-file value="osm.truck.trips.xml.tmp"/>
        <alternatives-output value="NUL"/>
        <write-trips value="true"/>
    </output>

    <processing>
        <remove-loops value="true"/>
    </processing>

    <time>
        <begin value="0.0"/>
        <end value="3600.0"/>
    </time>

    <report>
        <no-warnings value="true"/>
        <ignore-errors value="true"/>
        <no-step-log value="true"/>
    </report>

</duarouterConfiguration>
-->

<routes xmlns:xsi="http://www.w3.org/2001/XMLSchema-instance" xsi:noNamespaceSchemaLocation="http://sumo.dlr.de/xsd/routes_file.xsd">
    <vType id="truck_truck" vClass="truck"/>
    <trip id="truck0" type="truck_truck" depart="0.00" departLane="best" from="118672471#1" to="-118556995#7"/>
    <trip id="truck1" type="truck_truck" depart="0.91" departLane="best" from="302765738#0" to="-118672622#2"/>
    <trip id="truck2" type="truck_truck" depart="1.81" departLane="best" from="258076350" to="1385690808#0"/>
    <trip id="truck3" type="truck_truck" depart="2.72" departLane="best" from="-118672623" to="-118672304#0"/>
    <trip id="truck4" type="truck_truck" depart="3.63" departLane="best" from="673151165" to="-118672495#4"/>
    <trip id="truck5" type="truck_truck" depart="4.53" departLane="best" from="118672486#0" to="118672375#5"/>
    <trip id="truck6" type="truck_truck" depart="5.44" departLane="best" from="-1280089208#0" to="118672443#2"/>
    <trip id="truck7" type="truck_truck" depart="6.35" departLane="best" from="302765738#1" to="258076370"/>
    <trip id="truck8" type="truck_truck" depart="7.25" departLane="best" departSpeed="max" from="-673151154#1" to="-118672443#0"/>
    <trip id="truck9" type="truck_truck" depart="8.16" departLane="best" from="693841066#4" to="-641433845#0"/>
    <trip id="truck10" type="truck_truck" depart="9.07" departLane="best" from="641463542" to="118672470#2"/>
    <trip id="truck11" type="truck_truck" depart="9.98" departLane="best" departSpeed="max" from="-695498644" to="118672382#3"/>
    <trip id="truck12" type="truck_truck" depart="10.88" departLane="best" from="118672316#1" to="-1280089209#0"/>
    <trip id="truck13" type="truck_truck" depart="11.79" departLane="best" from="-118672375#0" to="-295853905"/>
    <trip id="truck14" type="truck_truck" depart="12.70" departLane="best" from="-693841066#3" to="118672506#4"/>
    <trip id="truck15" type="truck_truck" depart="13.60" departLane="best" from="302752531#2" to="695749390"/>
    <trip id="truck16" type="truck_truck" depart="14.51" departLane="best" from="118672484#3" to="118672471#1"/>
    <trip id="truck17" type="truck_truck" depart="15.42" departLane="best" from="-118672471#1" to="302751283#5"/>
    <trip id="truck18" type="truck_truck" depart="16.32" departLane="best" departSpeed="max" from="828696690" to="118672506#2"/>
    <trip id="truck19" type="truck_truck" depart="17.23" departLane="best" from="641433845#0" to="-302765756#0"/>
    <trip id="truck20" type="truck_truck" depart="18.14" departLane="best" from="-641463541" to="-295842845#3"/>
    <trip id="truck21" type="truck_truck" depart="19.04" departLane="best" from="-118672510#1" to="695838782#1"/>
    <trip id="truck22" type="truck_truck" depart="19.95" departLane="best" from="-673151154#0" to="-372298257"/>
    <trip id="truck23" type="truck_truck" depart="20.86" departLane="best" from="118672495#0" to="-693841066#8"/>
    <trip id="truck24" type="truck_truck" depart="21.76" departLane="best" from="302752531#0" to="-258076338#0"/>
    <trip id="truck25" type="truck_truck" depart="22.67" departLane="best" from="118672382#2" to="695496270#1"/>
    <trip id="truck26" type="truck_truck" depart="23.58" departLane="best" departSpeed="max" from="895441570" to="118672349#4"/>
    <trip id="truck27" type="truck_truck" depart="24.48" departLane="best" from="118672617#1" to="118672369#1"/>
    <trip id="truck28" type="truck_truck" depart="25.39" departLane="best" from="-118672382#2" to="-895442884"/>
    <trip id="truck29" type="truck_truck" depart="26.30" departLane="best" from="295853898#0" to="118672375#1"/>
    <trip id="truck30" type="truck_truck" depart="27.21" departLane="best" from="302752531#1" to="118672349#5"/>
    <trip id="truck31" type="truck_truck" depart="28.11" departLane="best" from="-673151156#1" to="672811721#4"/>
    <trip id="truck32" type="truck_truck" depart="29.02" departLane="best" from="673151156#1" to="695838782#1"/>
    <trip id="truck33" type="truck_truck" depart="29.93" departLane="best" from="295853905" to="-118672383#3"/>
    <trip id="truck34" type="truck_truck" depart="30.83" departLane="best" from="118556995#0" to="118672382#3"/>
    <trip id="truck35" type="truck_truck" depart="31.74" departLane="best" from="-302752531#0" to="693810829#6"/>
    <trip id="truck36" type="truck_truck" depart="32.65" departLane="best" departSpeed="max" from="-696241306" to="-118672506#5"/>
    <trip id="truck37" type="truck_truck" depart="33.55" departLane="best" from="-118672506#1" to="-372298256#0"/>
    <trip id="truck38" type="truck_truck" depart="34.46" departLane="best" departSpeed="max" from="895441570" to="118672617#0"/>
    <trip id="truck39" type="truck_truck" depart="35.37" departLane="best" from="-118672383#2" to="-118672623"/>
    <trip id="truck40" type="truck_truck" depart="36.27" departLane="best" from="-258076337" to="-118672622#0"/>
    <trip id="truck41" type="truck_truck" depart="37.18" departLane="best" from="693841066#7" to="118672432#1"/>
    <trip id="truck42" type="truck_truck" depart="38.09" departLane="best" departSpeed="max" from="258076338#0" to="1381019928#0"/>
    <trip id="truck43" type="truck_truck" depart="38.99" departLane="best" from="828696689#1" to="-118672330#2"/>
    <trip id="truck44" type="truck_truck" depart="39.90" departLane="best" departSpeed="max" from="-695749017" to="-641463541"/>
    <trip id="truck45" type="truck_truck" depart="40.81" departLane="best" from="118672501#0" to="118555831#7"/>
    <trip id="truck46" type="truck_truck" depart="41.71" departLane="best" from="118672316#1" to="-118672241#6"/>
    <trip id="truck47" type="truck_truck" depart="42.62" departLane="best" from="895482086" to="-673151153#2"/>
    <trip id="truck48" type="truck_truck" depart="43.53" departLane="best" from="697028016#11" to="695745891"/>
    <trip id="truck49" type="truck_truck" depart="44.44" departLane="best" from="641463545" to="-118672458#3"/>
    <trip id="truck50" type="truck_truck" depart="45.34" departLane="best" departSpeed="max" from="-695745891" to="-118672253#6"/>
    <trip id="truck51" type="truck_truck" depart="46.25" departLane="best" from="302752531#0" to="-303500262#0"/>
    <trip id="truck52" type="truck_truck" depart="47.16" departLane="best" from="118672330#0" to="295853898#0"/>
    <trip id="truck53" type="truck_truck" depart="48.06" departLane="best" from="-118672453" to="-302765756#1"/>
    <trip id="truck54" type="truck_truck" depart="48.97" departLane="best" from="118672316#1" to="-118672484#4"/>
    <trip id="truck55" type="truck_truck" depart="49.88" departLane="best" from="118672391#2" to="1381019928#1"/>
    <trip id="truck56" type="truck_truck" depart="50.78" departLane="best" from="-258076352" to="118672375#5"/>
    <trip id="truck57" type="truck_truck" depart="51.69" departLane="best" from="118672391#2" to="118672495#0"/>
    <trip id="truck58" type="truck_truck" depart="52.60" departLane="best" departSpeed="max" from="-696235206" to="118672433#6"/>
    <trip id="truck59" type="truck_truck" depart="53.50" departLane="best" from="-118672506#4" to="-295842845#7"/>
    <trip id="truck60" type="truck_truck" depart="54.41" departLane="best" from="-641463542" to="302763977#3"/>
    <trip id="truck61" type="truck_truck" depart="55.32" departLane="best" from="118672304#1" to="118556995#4"/>
    <trip id="truck62" type="truck_truck" depart="56.22" departLane="best" from="302752531#0" to="695749017"/>
    <trip id="truck63" type="truck_truck" depart="57.13" departLane="best" from="-693841066#3" to="-118672446#0"/>
    <trip id="truck64" type="truck_truck" depart="58.04" departLane="best" from="641403958" to="258076372"/>
    <trip id="truck65" type="truck_truck" depart="58.95" departLane="best" from="118672487#0" to="-118555831#4"/>
    <trip id="truck66" type="truck_truck" depart="59.85" departLane="best" from="320528140#1" to="302765759#0"/>
    <trip id="truck67" type="truck_truck" depart="60.76" departLane="best" from="-118672495#6" to="695749390"/>
    <trip id="truck68" type="truck_truck" depart="61.67" departLane="best" from="-302763996#3" to="118672470#3"/>
    <trip id="truck69" type="truck_truck" depart="62.57" departLane="best" from="641463541" to="-118672316#1"/>
    <trip id="truck70" type="truck_truck" depart="63.48" departLane="best" from="-118555831#10" to="302765740"/>
    <trip id="truck71" type="truck_truck" depart="64.39" departLane="best" from="118672470#4" to="-295842845#0"/>
    <trip id="truck72" type="truck_truck" depart="65.29" departLane="best" from="-258076370" to="118672382#3"/>
    <trip id="truck73" type="truck_truck" depart="66.20" departLane="best" from="641403958" to="118672433#6"/>
    <trip id="truck74" type="truck_truck" depart="67.11" departLane="best" from="-641403960#1" to="695496271#0"/>
    <trip id="truck75" type="truck_truck" depart="68.01" departLane="best" from="302752531#2" to="693841066#11"/>
    <trip id="truck76" type="truck_truck" depart="68.92" departLane="best" departSpeed="max" from="-695749017" to="118672495#1"/>
    <trip id="truck77" type="truck_truck" depart="69.83" departLane="best" from="-118672446#1" to="695749017"/>
    <trip id="truck78" type="truck_truck" depart="70.73" departLane="best" from="118672359#0" to="697028016#11"/>
    <trip id="truck79" type="truck_truck" depart="71.64" departLane="best" from="302765759#1" to="693841066#1"/>
    <trip id="truck80" type="truck_truck" depart="72.55" departLane="best" from="-118556995#7" to="302752531#3"/>
    <trip id="truck81" type="truck_truck" depart="73.45" departLane="best" from="-672811721#5" to="695749017"/>
    <trip id="truck82" type="truck_truck" depart="74.36" departLane="best" from="302763996#3" to="-676441605#3"/>
    <trip id="truck83" type="truck_truck" depart="75.27" departLane="best" from="-672811722" to="673195455#2"/>
    <trip id="truck84" type="truck_truck" depart="76.18" departLane="best" from="302763977#3" to="-1207652542"/>
    <trip id="truck85" type="truck_truck" depart="77.08" departLane="best" from="-118556995#6" to="-118672495#0"/>
    <trip id="truck86" type="truck_truck" depart="77.99" departLane="best" from="-672811721#2" to="676441607"/>
    <trip id="truck87" type="truck_truck" depart="78.90" departLane="best" departSpeed="max" from="118672484#0" to="-695496269"/>
    <trip id="truck88" type="truck_truck" depart="79.80" departLane="best" from="828696688" to="118672369#1"/>
    <trip id="truck89" type="truck_truck" depart="80.71" departLane="best" from="694327029#0" to="-118672375#2"/>
    <trip id="truck90" type="truck_truck" depart="81.62" departLane="best" from="-118672382#0" to="-895442884"/>
    <trip id="truck91" type="truck_truck" depart="82.52" departLane="best" departSpeed="max" from="258076338#0" to="-372298256#1"/>
    <trip id="truck92" type="truck_truck" depart="83.43" departLane="best" from="118672432#1" to="118672312#2"/>
    <trip id="truck93" type="truck_truck" depart="84.34" departLane="best" from="-693841066#10" to="-118672290#0"/>
    <trip id="truck94" type="truck_truck" depart="85.24" departLane="best" from="-641433845#1" to="673151156#2"/>
    <trip id="truck95" type="truck_truck" depart="86.15" departLane="best" departSpeed="max" from="199383483" to="-302765759#0"/>
    <trip id="truck96" type="truck_truck" depart="87.06" departLane="best" from="-641403960#1" to="-696463777"/>
    <trip id="truck97" type="truck_truck" depart="87.96" departLane="best" departSpeed="max" from="-695749017" to="-302765756#0"/>
    <trip id="truck98" type="truck_truck" depart="88.87" departLane="best" from="-118672391#1" to="697028016#7"/>
    <trip id="truck99" type="truck_truck" depart="89.78" departLane="best" from="694327029#1" to="1385690808#1"/>
    <trip id="truck100" type="truck_truck" depart="90.68" departLane="best" from="-118555831#0" to="-302763996#0"/>
    <trip id="truck101" type="truck_truck" depart="91.59" departLane="best" from="-696463774#1" to="118672433#5"/>
    <trip id="truck102" type="truck_truck" depart="92.50" departLane="best" from="118672487#1" to="118672230#2"/>
    <trip id="truck103" type="truck_truck" depart="93.41" departLane="best" from="-118672330#0" to="-118672316#1"/>
    <trip id="truck104" type="truck_truck" depart="94.31" departLane="best" from="372298256#0" to="302763977#3"/>
    <trip id="truck105" type="truck_truck" depart="95.22" departLane="best" from="-118672506#4" to="-118672623"/>
    <trip id="truck106" type="truck_truck" depart="96.13" departLane="best" from="657772383#0" to="118672290#2"/>
    <trip id="truck107" type="truck_truck" depart="97.03" departLane="best" departSpeed="max" from="-695749390" to="118672501#1"/>
    <trip id="truck108" type="truck_truck" depart="97.94" departLane="best" departSpeed="max" from="-118672501#2" to="258076367"/>
    <trip id="truck109" type="truck_truck" depart="98.85" departLane="best" from="118672495#0" to="118555831#2"/>
    <trip id="truck110" type="truck_truck" depart="99.75" departLane="best" from="295842845#10" to="302765740"/>
    <trip id="truck111" type="truck_truck" depart="100.66" departLane="best" from="-118672375#4" to="-828696689#1"/>
    <trip id="truck112" type="truck_truck" depart="101.57" departLane="best" from="118672253#7" to="-118672241#5"/>
    <trip id="truck113" type="truck_truck" depart="102.47" departLane="best" from="-895442884" to="641403960#1"/>
    <trip id="truck114" type="truck_truck" depart="103.38" departLane="best" departSpeed="max" from="199383483" to="118672290#4"/>
    <trip id="truck115" type="truck_truck" depart="104.29" departLane="best" from="405966003#0" to="118672382#2"/>
    <trip id="truck116" type="truck_truck" depart="105.19" departLane="best" from="118556995#0" to="-295842845#0"/>
    <trip id="truck117" type="truck_truck" depart="106.10" departLane="best" from="295853905" to="118672330#2"/>
    <trip id="truck118" type="truck_truck" depart="107.01" departLane="best" from="-118672312#3" to="-302752531#3"/>
    <trip id="truck119" type="truck_truck" depart="107.91" departLane="best" from="-302763996#2" to="-405965807"/>
    <trip id="truck120" type="truck_truck" depart="108.82" departLane="best" from="-1315633568" to="-118672270#0"/>
    <trip id="truck121" type="truck_truck" depart="109.73" departLane="best" departSpeed="max" from="-695749017" to="118672375#3"/>
    <trip id="truck122" type="truck_truck" depart="110.64" departLane="best" departSpeed="max" from="-696235206" to="118672506#2"/>
    <trip id="truck123" type="truck_truck" depart="111.54" departLane="best" from="118672382#2" to="258076367"/>
    <trip id="truck124" type="truck_truck" depart="112.45" departLane="best" from="657772383#3" to="696235206"/>
    <trip id="truck125" type="truck_truck" depart="113.36" departLane="best" departSpeed="max" from="118672316#0" to="118672470#1"/>
    <trip id="truck126" type="truck_truck" depart="114.26" departLane="best" from="-1280089208#0" to="-118672617#1"/>
    <trip id="truck127" type="truck_truck" depart="115.17" departLane="best" from="118555831#4" to="-118672383#2"/>
    <trip id="truck128" type="truck_truck" depart="116.08" departLane="best" from="118672446#1" to="-118672230#0"/>
    <trip id="truck129" type="truck_truck" depart="116.98" departLane="best" from="673151165" to="118672506#4"/>
    <trip id="truck130" type="truck_truck" depart="117.89" departLane="best" from="-118672253#3" to="-693833176"/>
    <trip id="truck131" type="truck_truck" depart="118.80" departLane="best" from="295842845#12" to="672811721#4"/>
    <trip id="truck132" type="truck_truck" depart="119.70" departLane="best" from="118556995#2" to="118672375#1"/>
    <trip id="truck133" type="truck_truck" depart="120.61" departLane="best" from="118672486#0" to="302765759#2"/>
    <trip id="truck134" type="truck_truck" depart="121.52" departLane="best" from="694327029#1" to="-118672495#5"/>
    <trip id="truck135" type="truck_truck" depart="122.42" departLane="best" from="-118556995#3" to="-118672433#3"/>
    <trip id="truck136" type="truck_truck" depart="123.33" departLane="best" from="-118672391#1" to="-1315633568"/>
    <trip id="truck137" type="truck_truck" depart="124.24" departLane="best" departSpeed="max" from="295842845#0" to="-118672375#1"/>
    <trip id="truck138" type="truck_truck" depart="125.14" departLane="best" from="-118672382#0" to="-118556995#7"/>
    <trip id="truck139" type="truck_truck" depart="126.05" departLane="best" departSpeed="max" from="1207652542" to="118672495#6"/>
    <trip id="truck140" type="truck_truck" depart="126.96" departLane="best" from="657772383#0" to="118672458#4"/>
    <trip id="truck141" type="truck_truck" depart="127.87" departLane="best" from="-118672383#2" to="697028016#9"/>
    <trip id="truck142" type="truck_truck" depart="128.77" departLane="best" from="302756236#1" to="658076318#0"/>
    <trip id="truck143" type="truck_truck" depart="129.68" departLane="best" from="118672241#4" to="-641463545"/>
    <trip id="truck144" type="truck_truck" depart="130.59" departLane="best" from="-118672375#4" to="696241306"/>
    <trip id="truck145" type="truck_truck" depart="131.49" departLane="best" from="118672312#0" to="118672253#2"/>
    <trip id="truck146" type="truck_truck" depart="132.40" departLane="best" from="302752531#3" to="673151165"/>
    <trip id="truck147" type="truck_truck" depart="133.31" departLane="best" from="405966003#0" to="-118672316#0"/>
    <trip id="truck148" type="truck_truck" depart="134.21" departLane="best" from="657772383#1" to="-118672484#0"/>
    <trip id="truck149" type="truck_truck" depart="135.12" departLane="best" from="-118672617#0" to="641403959#0"/>
    <trip id="truck150" type="truck_truck" depart="136.03" departLane="best" from="1280089210" to="-295853898#0"/>
    <trip id="truck151" type="truck_truck" depart="136.93" departLane="best" from="-118672330#0" to="295853898#1"/>
    <trip id="truck152" type="truck_truck" depart="137.84" departLane="best" departSpeed="max" from="1207652542" to="303500261#0"/>
    <trip id="truck153" type="truck_truck" depart="138.75" departLane="best" from="118672382#0" to="-118672241#1"/>
    <trip id="truck154" type="truck_truck" depart="139.65" departLane="best" departSpeed="max" from="295842845#0" to="-641403960#0"/>
    <trip id="truck155" type="truck_truck" depart="140.56" departLane="best" from="-295842845#4" to="-118672382#0"/>
    <trip id="truck156" type="truck_truck" depart="141.47" departLane="best" from="118672304#1" to="302763996#0"/>
    <trip id="truck157" type="truck_truck" depart="142.38" departLane="best" from="697028016#9" to="118672349#1"/>
    <trip id="truck158" type="truck_truck" depart="143.28" departLane="best" departSpeed="max" from="-118672501#2" to="-1207652542"/>
    <trip id="truck159" type="truck_truck" depart="144.19" departLane="best" from="-118672487#0" to="-118555831#8"/>
    <trip id="truck160" type="truck_truck" depart="145.10" departLane="best" from="697028016#6" to="118672382#3"/>
    <trip id="truck161" type="truck_truck" depart="146.00" departLane="best" from="-118672495#2" to="-118672241#6"/>
    <trip id="truck162" type="truck_truck" depart="146.91" departLane="best" from="295853906#1" to="118672501#1"/>
    <trip id="truck163" type="truck_truck" depart="147.82" departLane="best" from="-118672253#7" to="-118672433#1"/>
    <trip id="truck164" type="truck_truck" depart="148.72" departLane="best" from="118672349#2" to="302765759#1"/>
    <trip id="truck165" type="truck_truck" depart="149.63" departLane="best" departSpeed="max" from="895441570" to="-118672375#4"/>
    <trip id="truck166" type="truck_truck" depart="150.54" departLane="best" from="295853898#1" to="118672470#4"/>
    <trip id="truck167" type="truck_truck" depart="151.44" departLane="best" departSpeed="max" from="828696690" to="302765759#2"/>
    <trip id="truck168" type="truck_truck" depart="152.35" departLane="best" from="-118672508#0" to="-118672506#5"/>
    <trip id="truck169" type="truck_truck" depart="153.26" departLane="best" from="118672495#3" to="-118672443#1"/>
    <trip id="truck170" type="truck_truck" depart="154.16" departLane="best" from="118672391#1" to="-302763996#4"/>
    <trip id="truck171" type="truck_truck" depart="155.07" departLane="best" from="1280089211" to="118556995#1"/>
    <trip id="truck172" type="truck_truck" depart="155.98" departLane="best" from="302756236#6" to="118672495#4"/>
    <trip id="truck173" type="truck_truck" depart="156.88" departLane="best" from="-118672495#4" to="695749017"/>
    <trip id="truck174" type="truck_truck" depart="157.79" departLane="best" departSpeed="max" from="-696241306" to="118672375#5"/>
    <trip id="truck175" type="truck_truck" depart="158.70" departLane="best" from="-118672470#2" to="-303500262#0"/>
    <trip id="truck176" type="truck_truck" depart="159.61" departLane="best" departSpeed="max" from="295842845#0" to="118672432#0"/>
    <trip id="truck177" type="truck_truck" depart="160.51" departLane="best" departSpeed="max" from="1207652542" to="258076371"/>
    <trip id="truck178" type="truck_truck" depart="161.42" departLane="best" departSpeed="max" from="695496269" to="118672290#1"/>
    <trip id="truck179" type="truck_truck" depart="162.33" departLane="best" from="118672238#1" to="-118672312#1"/>
    <trip id="truck180" type="truck_truck" depart="163.23" departLane="best" from="-657772383#2" to="-258076340"/>
    <trip id="truck181" type="truck_truck" depart="164.14" departLane="best" from="641403959#0" to="118672433#2"/>
    <trip id="truck182" type="truck_truck" depart="165.05" departLane="best" from="695496271#2" to="-118672432#0"/>
    <trip id="truck183" type="truck_truck" depart="165.95" departLane="best" from="-118672506#3" to="-295842845#4"/>
    <trip id="truck184" type="truck_truck" depart="166.86" departLane="best" from="693819571#4" to="-118672484#0"/>
    <trip id="truck185" type="truck_truck" depart="167.77" departLane="best" from="118672238#0" to="-118672316#0"/>
    <trip id="truck186" type="truck_truck" depart="168.67" departLane="best" from="-673151156#2" to="-641403960#1"/>
    <trip id="truck187" type="truck_truck" depart="169.58" departLane="best" from="-672811721#3" to="258076350"/>
    <trip id="truck188" type="truck_truck" depart="170.49" departLane="best" from="302765759#2" to="695838782#1"/>
    <trip id="truck189" type="truck_truck" depart="171.39" departLane="best" from="303500261#0" to="118672382#3"/>
    <trip id="truck190" type="truck_truck" depart="172.30" departLane="best" from="-658076318#0" to="696463774#1"/>
    <trip id="truck191" type="truck_truck" depart="173.21" departLane="best" departSpeed="max" from="828696690" to="1226140716"/>
    <trip id="truck192" type="truck_truck" depart="174.11" departLane="best" from="295842845#4" to="118672495#5"/>
    <trip id="truck193" type="truck_truck" depart="175.02" departLane="best" from="295842845#7" to="-118672501#1"/>
    <trip id="truck194" type="truck_truck" depart="175.93" departLane="best" from="-118672383#2" to="697028016#0"/>
    <trip id="truck195" type="truck_truck" depart="176.84" departLane="best" from="118672433#0" to="-1381019928#1"/>
    <trip id="truck196" type="truck_truck" depart="177.74" departLane="best" from="-118672458#1" to="118672382#3"/>
    <trip id="truck197" type="truck_truck" depart="178.65" departLane="best" from="-118555831#1" to="118672375#3"/>
    <trip id="truck198" type="truck_truck" depart="179.56" departLane="best" from="641403957#0" to="118672270#4"/>
    <trip id="truck199" type="truck_truck" depart="180.46" departLane="best" departSpeed="max" from="199383483" to="-295853906#1"/>
    <trip id="truck200" type="truck_truck" depart="181.37" departLane="best" from="302763996#4" to="-673151153#0"/>
    <trip id="truck201" type="truck_truck" depart="182.28" departLane="best" from="302765738#1" to="372298257"/>
    <trip id="truck202" type="truck_truck" depart="183.18" departLane="best" from="118672241#5" to="658076483#0"/>
    <trip id="truck203" type="truck_truck" depart="184.09" departLane="best" from="118672312#1" to="657772383#2"/>
    <trip id="truck204" type="truck_truck" depart="185.00" departLane="best" from="118672316#2" to="118672375#4"/>
    <trip id="truck205" type="truck_truck" depart="185.90" departLane="best" from="-118672495#6" to="-118672241#5"/>
    <trip id="truck206" type="truck_truck" depart="186.81" departLane="best" from="118672369#0" to="-1280089209#0"/>
    <trip id="truck207" type="truck_truck" depart="187.72" departLane="best" from="302751283#7" to="-118672241#0"/>
    <trip id="truck208" type="truck_truck" depart="188.62" departLane="best" departSpeed="max" from="295842845#0" to="258076372"/>
    <trip id="truck209" type="truck_truck" depart="189.53" departLane="best" from="302765759#1" to="-693841066#0"/>
    <trip id="truck210" type="truck_truck" depart="190.44" departLane="best" from="118672383#3" to="693810829#4"/>
    <trip id="truck211" type="truck_truck" depart="191.34" departLane="best" from="-673151153#2" to="118555831#10"/>
    <trip id="truck212" type="truck_truck" depart="192.25" departLane="best" departSpeed="max" from="199383483" to="697020756"/>
    <trip id="truck213" type="truck_truck" depart="193.16" departLane="best" from="657772383#2" to="676441605#0"/>
    <trip id="truck214" type="truck_truck" depart="194.07" departLane="best" departSpeed="max" from="199383483" to="302763977#8"/>
    <trip id="truck215" type="truck_truck" depart="194.97" departLane="best" departSpeed="max" from="1207652542" to="695498644"/>
    <trip id="truck216" type="truck_truck" depart="195.88" departLane="best" departSpeed="max" from="-118672433#6" to="118672349#6"/>
    <trip id="truck217" type="truck_truck" depart="196.79" departLane="best" from="118672349#5" to="405966003#0"/>
    <trip id="truck218" type="truck_truck" depart="197.69" departLane="best" from="-118672471#0" to="-118672312#0"/>
    <trip id="truck219" type="truck_truck" depart="198.60" departLane="best" departSpeed="max" from="-118672433#6" to="118556995#6"/>
    <trip id="truck220" type="truck_truck" depart="199.51" departLane="best" from="-118555831#5" to="641403961"/>
    <trip id="truck221" type="truck_truck" depart="200.41" departLane="best" departSpeed="max" from="693810828#0" to="1385690808#1"/>
    <trip id="truck222" type="truck_truck" depart="201.32" departLane="best" from="-673151156#0" to="118672443#0"/>
    <trip id="truck223" type="truck_truck" depart="202.23" departLane="best" from="118672471#1" to="-828696689#0"/>
    <trip id="truck224" type="truck_truck" depart="203.13" departLane="best" from="-295842845#3" to="673151156#0"/>
    <trip id="truck225" type="truck_truck" depart="204.04" departLane="best" from="-118672506#0" to="-693841066#0"/>
    <trip id="truck226" type="truck_truck" depart="204.95" departLane="best" from="118556995#6" to="-1315633568"/>
    <trip id="truck227" type="truck_truck" depart="205.85" departLane="best" from="302765738#0" to="118672410"/>
    <trip id="truck228" type="truck_truck" depart="206.76" departLane="best" from="-118672253#2" to="118672470#4"/>
    <trip id="truck229" type="truck_truck" depart="207.67" departLane="best" from="118672510#0" to="295853898#1"/>
    <trip id="truck230" type="truck_truck" depart="208.57" departLane="best" departSpeed="max" from="258076338#0" to="-118672316#0"/>
    <trip id="truck231" type="truck_truck" depart="209.48" departLane="best" departSpeed="max" from="405965807" to="118672253#0"/>
    <trip id="truck232" type="truck_truck" depart="210.39" departLane="best" from="302765756#0" to="302756236#8"/>
    <trip id="truck233" type="truck_truck" depart="211.30" departLane="best" from="696463774#1" to="-118672423#0"/>
    <trip id="truck234" type="truck_truck" depart="212.20" departLane="best" from="-697028016#1" to="641403961"/>
    <trip id="truck235" type="truck_truck" depart="213.11" departLane="best" from="-118555831#8" to="118672369#1"/>
    <trip id="truck236" type="truck_truck" depart="214.02" departLane="best" from="118672349#1" to="695635073"/>
    <trip id="truck237" type="truck_truck" depart="214.92" departLane="best" from="-1280089209#0" to="-118672259"/>
    <trip id="truck238" type="truck_truck" depart="215.83" departLane="best" from="641403957#1" to="-696463777"/>