<?xml version="1.0" encoding="UTF-8"?>

<!-- generated on 2025-05-15 12:42:36.709552 by randomTrips.py v1_22_0+0002-63e50f52594
<configuration>
    <net-file value="osm.net.xml.gz"/>
    <output-trip-file value="osm.motorcycle.trips.xml"/>
    <route-file value="osm.motorcycle.rou.xml"/>
    <prefix value="motorcycle"/>
    <trip-attributes value="departLane=&quot;best&quot;"/>
    <fringe-start-attributes value="departSpeed=&quot;max&quot;"/>
    <vehicle-class value="motorcycle"/>
    <fringe-factor value="2"/>
    <vclass value="motorcycle"/>
    <via-edge-types value="highway.motorway,highway.motorway_link,highway.trunk_link,highway.primary_link,highway.secondary_link,highway.tertiary_link"/>
    <max-distance value="1200.0"/>
    <remove-loops value="True"/>
    <validate value="True"/>
    <insertion-density value="40.0"/>
</configuration>
-->

<!-- generated on 2025-05-15 12:42:36 by Eclipse SUMO duarouter Version 1.22.0
<duarouterConfiguration xmlns:xsi="http://www.w3.org/2001/XMLSchema-instance" xsi:noNamespaceSchemaLocation="http://sumo.dlr.de/xsd/duarouterConfiguration.xsd">

    <input>
        <net-file value="osm.net.xml.gz"/>
        <route-files value="osm.motorcycle.trips.xml"/>
    </input>

    <output>
        <output-file value="osm.motorcycle.rou.xml"/>
        <alternatives-output value="NUL"/>
    </output>

    <processing>
        <remove-loops value="true"/>
    </processing>

    <time>
        <begin value="0.0"/>
        <end value="3600.0"/>
    </time>

    <report>
        <no-warnings value="true"/>
        <ignore-errors value="true"/>
        <no-step-log value="true"/>
    </report>

</duarouterConfiguration>
-->

<routes xmlns:xsi="http://www.w3.org/2001/XMLSchema-instance" xsi:noNamespaceSchemaLocation="http://sumo.dlr.de/xsd/routes_file.xsd">
    <vType id="motorcycle_motorcycle" vClass="motorcycle"/>
    <vehicle id="motorcycle0" type="motorcycle_motorcycle" depart="0.00" departLane="best">
        <route edges="118672470#4 673151156#0 673151156#1 673151156#2 673151156#3 693810829#0 693810829#2 693810829#3 693810829#4 693810829#5 693810829#6 1282340721#1 696257601#0 696257601#1 695496271#0 695496271#2 695496271#3 695496270#1 -676441605#3 -676441605#2 -118556995#5"/>
    </vehicle>
    <vehicle id="motorcycle1" type="motorcycle_motorcycle" depart="1.81" departLane="best">
        <route edges="-295853905 118672391#1 118672391#2 693841066#1 693841066#2 693841066#3 693841066#4 302756236#4 302756236#5 118672508#0 118672241#3"/>
    </vehicle>
    <vehicle id="motorcycle2" type="motorcycle_motorcycle" depart="3.62" departLane="best">
        <route edges="258076352 -118672508#1 -118672241#2 -118672241#1 -693841066#9 -693841066#8 695838784#4 -118672349#6 -118672349#5 -118672349#4 -118672423#1 -118672622#2 -118672622#1"/>
    </vehicle>
    <vehicle id="motorcycle3" type="motorcycle_motorcycle" depart="5.43" departLane="best">
        <route edges="696257601#1 695496271#0 695496271#2 695496271#3 695496270#1 -676441605#3 -676441605#2 -676441605#1 118555831#4 -118672312#1"/>
    </vehicle>
    <vehicle id="motorcycle4" type="motorcycle_motorcycle" depart="7.24" departLane="best">
        <route edges="-696463777 -405966003#0 -295842845#10 -295842845#9 -303500262#1 -303500262#0 -118672230#0"/>
    </vehicle>
    <vehicle id="motorcycle5" type="motorcycle_motorcycle" depart="9.05" departLane="best">
        <route edges="-118672506#5 -118672506#4 -118672506#3 -118672506#2 -118672506#1 -118672506#0 693810829#4 693810829#5 693810829#6 1282340721#1 696257601#0 696257601#1 -295842845#13 -295842845#10 -295842845#9 -295842845#7 -295842845#6 -295842845#5 118672270#0 118672270#1 118672270#2"/>
    </vehicle>
    <vehicle id="motorcycle6" type="motorcycle_motorcycle" depart="10.86" departLane="best">
        <route edges="-118556995#6 676441605#2 676441605#3 302756236#7 302756236#8 302756236#9 302756236#10 694327029#0 694327029#1 673195454#1 673195454#2 199383484#1 199383484#2 199383484#3 697020756 118672290#0 118672290#1 118672506#1 118672506#2 118672506#3 118672446#0 118672446#1 -118672495#0 -118672487#1"/>
    </vehicle>
    <vehicle id="motorcycle7" type="motorcycle_motorcycle" depart="12.68" departLane="best">
        <route edges="118672486#0 118672486#1 118555831#3 118555831#4 118555831#5 118555831#6 118555831#7 -118672316#3 -118672617#1 -118672617#0 118672349#2"/>
    </vehicle>
    <vehicle id="motorcycle8" type="motorcycle_motorcycle" depart="14.49" departLane="best">
        <route edges="302765756#0 302765756#1 1280089210 -1280089209#1 -1280089209#0 658076483#0 658076483#1 658076483#2 658318010 673195455#0 673195455#1 673195455#2 1282340721#1 696257601#0 696257601#1 -295842845#13 -295842845#10 -295842845#9 -295842845#7 118555831#0 118555831#1 118555831#2"/>
    </vehicle>
    <vehicle id="motorcycle9" type="motorcycle_motorcycle" depart="16.30" departLane="best">
        <route edges="302763996#4 -675771882 1381019928#0"/>
    </vehicle>
    <vehicle id="motorcycle10" type="motorcycle_motorcycle" depart="18.11" departLane="best">
        <route edges="-658076318#0 695635073 118672501#0 -118672375#2 118672382#0 -118672506#5 -118672506#4 -118672506#3 -118672506#2 -118672433#1"/>
    </vehicle>
    <vehicle id="motorcycle11" type="motorcycle_motorcycle" depart="19.92" departLane="best">
        <route edges="695635073 -641463541 -641463542 118672253#8 658076318#2 302763996#4 302752531#0 -1381019928#1 -641403960#2"/>
    </vehicle>
    <vehicle id="motorcycle12" type="motorcycle_motorcycle" depart="21.73" departLane="best">
        <route edges="-118672316#3 -118672316#2"/>
    </vehicle>
    <vehicle id="motorcycle13" type="motorcycle_motorcycle" depart="23.54" departLane="best">
        <route edges="641433845#1 -118672383#1 -118672383#0 -118672375#3 -118672375#2 -118672375#1 118672433#1 118672433#2 118672433#3 118672433#4 118672433#5 118672433#6"/>
    </vehicle>
    <vehicle id="motorcycle14" type="motorcycle_motorcycle" depart="25.35" departLane="best">
        <route edges="302765738#0 302765738#1 1280089210 -1280089209#1 -1280089209#0 658076483#0 658076483#1 658076483#2 1280089211 1371895642#0 1371895642#1 302751283#2 302751283#3 -303500261#0 -673151153#2 -673151153#0 696463774#0 696463774#1 295842845#2"/>
    </vehicle>
    <vehicle id="motorcycle15" type="motorcycle_motorcycle" depart="27.16" departLane="best">
        <route edges="118672312#2 118672312#3 118672312#4 118556995#5 676441605#2 676441605#3 302756236#7 302756236#8 302756236#9 302756236#10 694327029#0 694327029#1 673195454#1 673195454#2 199383484#1 199383484#2 199383484#3 697020756"/>
    </vehicle>
    <vehicle id="motorcycle16" type="motorcycle_motorcycle" depart="28.97" departLane="best">
        <route edges="-405966002 -895442884 -673151153#2 828696689#0 828696689#1 295842845#6 118555831#0 118555831#1 118555831#2 118555831#3 118555831#4 118555831#5 118672458#3"/>
    </vehicle>
    <vehicle id="motorcycle17" type="motorcycle_motorcycle" depart="30.78" departLane="best">
        <route edges="658076318#2 -302763996#3 -302763996#2 118672359#0 -118672253#4 641433845#0 641433845#1 118672383#2"/>
    </vehicle>
    <vehicle id="motorcycle18" type="motorcycle_motorcycle" depart="32.59" departLane="best">
        <route edges="1280089210 -1280089209#1 -1280089209#0 658076483#0 658076483#1 658076483#2 658318010 673195455#0 673195455#1 673195455#2 1282340721#1 696257601#0 696257601#1 697028016#0 697028016#2 -118672241#6 -118672241#5 -118672241#4 -118672241#3 -118672241#2 -118672241#1"/>
    </vehicle>
    <vehicle id="motorcycle19" type="motorcycle_motorcycle" depart="34.40" departLane="best">
        <route edges="118672304#0 118672304#1 -118672290#4 -118672290#3 -118672259 693810829#3 693810829#4 693810829#5 693810829#6 1282340721#1 696257601#0 696257601#1 695496271#0 695496271#2 695496271#3 695496270#1 695838784#0 695838784#1 695838784#4 -118672349#6 -118672349#5 -118672349#4 -118672423#1 -118672622#2 -118672622#1"/>
    </vehicle>
    <vehicle id="motorcycle20" type="motorcycle_motorcycle" depart="36.21" departLane="best">
        <route edges="-118672349#1 372298256#0 372298256#1 118672316#2 118672316#3 -118555831#7 -118555831#6 -118555831#5 -118555831#4 -118555831#3 -118555831#2 -118555831#1 -118672230#2 -118672230#1 303500262#0 303500262#1 -295842845#7"/>
    </vehicle>
    <vehicle id="motorcycle21" type="motorcycle_motorcycle" depart="38.03" departLane="best">
        <route edges="118672470#1 -118672446#0 -118672506#3 -118672506#2 -118672506#1 -118672506#0 693810829#4 693810829#5 693810829#6 302751283#1 302751283#2 302751283#3 -303500261#0 -673151153#2 -673151153#0"/>
    </vehicle>
    <vehicle id="motorcycle22" type="motorcycle_motorcycle" depart="39.84" departLane="best">
        <route edges="-673151163#1 673151165 303500262#0 303500262#1 295842845#9 295842845#10 295842845#12 673195454#1 673195454#2 199383484#1 199383484#2 199383484#3 1385690809#0 -1315633568 658076318#0 118672330#0 118672330#2 118672330#3 672811721#1 672811721#2 672811721#3 -118672495#6"/>
    </vehicle>
    <vehicle id="motorcycle23" type="motorcycle_motorcycle" depart="41.65" departLane="best">
        <route edges="295842845#5 295842845#6 295842845#7 295842845#9 295842845#10 295842845#12 695496271#0 695500803"/>
    </vehicle>
    <vehicle id="motorcycle24" type="motorcycle_motorcycle" depart="43.46" departLane="best">
        <route edges="118672484#1 118672484#3 -697028016#11 -697028016#10 -697028016#9 697210392 693810829#0 693810829#2 693810829#3 118672506#0 118672506#1 118672506#2 118672506#3 118672446#0"/>
    </vehicle>
    <vehicle id="motorcycle25" type="motorcycle_motorcycle" depart="45.27" departLane="best">
        <route edges="-118672458#3 -118555831#5 -118555831#4 -118555831#3 -118555831#2 -118555831#1 -118555831#0 295842845#7 295842845#9 295842845#10 295842845#12"/>
    </vehicle>
    <vehicle id="motorcycle26" type="motorcycle_motorcycle" depart="47.08" departLane="best">
        <route edges="-118672446#0 118672506#4 118672506#5 -118672382#0 118672375#2 118672375#3 118672375#4 118672375#5 118672253#7 118672253#8 658076318#2 302763996#4 -675771882"/>
    </vehicle>
    <vehicle id="motorcycle27" type="motorcycle_motorcycle" depart="48.89" departLane="best">
        <route edges="828696689#0 828696689#1 295842845#6 295842845#7 295842845#9 295842845#10 295842845#12 697028016#0 697028016#2 697028016#3 697028016#5 697028016#6 697028016#7 697210392 -673151156#3 -673151156#2 -673151156#1 -673151156#0 -118672470#4 -118672470#3 118672487#1"/>
    </vehicle>
    <vehicle id="motorcycle28" type="motorcycle_motorcycle" depart="50.70" departLane="best">
        <route edges="118672338#2 118672290#0 118672290#1 -118672506#0 693810829#4 693810829#5 693810829#6 302751283#1 302751283#2 302751283#3 302751283#5 302751283#6 302751283#7 302765759#0 302765759#1 302765759#2 302765738#0 302765738#1 1280089210 -1280089209#1 -1280089209#0"/>
    </vehicle>
    <vehicle id="motorcycle29" type="motorcycle_motorcycle" depart="52.51" departLane="best">
        <route edges="641403960#2 1381019928#1 302752531#1 302752531#2 302752531#3 658076483#0 658076483#1 658076483#2 658318010 673195455#0 673195455#1 673195455#2 302763977#1 302763977#2 302763977#3"/>
    </vehicle>
    <vehicle id="motorcycle30" type="motorcycle_motorcycle" depart="54.32" departLane="best">
        <route edges="-118672622#0 -295853898#1 118672349#0 118672349#1 118672349#2 -118555831#9 -118555831#8 -118555831#7 -118555831#6 -118555831#5 -118555831#4 -118555831#3 -118555831#2 -118555831#1 -118672230#2"/>
    </vehicle>
    <vehicle id="motorcycle31" type="motorcycle_motorcycle" depart="56.13" departLane="best">
        <route edges="-641403957#0 -641403961 -1280089208#0 -1280089209#1 -1280089209#0 658076483#0 658076483#1 658076483#2 658318010 673195455#0 673195455#1 673195455#2 1282340721#1 696257601#0 696257601#1 -295842845#13 -295842845#10"/>
    </vehicle>
    <vehicle id="motorcycle32" type="motorcycle_motorcycle" depart="57.94" departLane="best">
        <route edges="-118672506#0 693810829#4 693810829#5 693810829#6 1282340721#1 696257601#0 696257601#1 -295842845#13 -295842845#10 -295842845#9 -295842845#7 -295842845#6 -295842845#5 -295842845#4 -295842845#3 -295842845#2 695745754"/>
    </vehicle>
    <vehicle id="motorcycle33" type="motorcycle_motorcycle" depart="59.75" departLane="best">
        <route edges="118672487#0 118672470#3 -118672433#3 -118672433#2 -118672506#1 -118672506#0 693810829#4 693810829#5 693810829#6 1282340721#1 696257601#0 696257601#1 695496271#0 695496271#2 695496271#3 695496270#1 695838784#0 695838784#1 693841066#7 693841066#9 693841066#10 693841066#11"/>
    </vehicle>
    <vehicle id="motorcycle34" type="motorcycle_motorcycle" depart="61.56" departLane="best">
        <route edges="693810829#4 693810829#5 693810829#6 1282340721#1 696257601#0 696257601#1 695496271#0 695496271#2 695496271#3 695496270#1 695838784#0 695838784#1 695838784#4 -118672349#6 -118672349#5 118556995#0 118556995#1"/>
    </vehicle>
    <vehicle id="motorcycle35" type="motorcycle_motorcycle" depart="63.38" departLane="best">
        <route edges="-295842845#4 -295842845#3 -295842845#2 -696463774#1 -696463774#0 673151153#0 673151153#2 303500261#0 302751283#5 302751283#6 302751283#7 302765759#0 302765759#1 302765759#2 302765738#0 302765738#1 1280089210 1280089208#0 641403961 657772383#0 657772383#1 641403959#0 641403960#2 -1381019928#0"/>
    </vehicle>
    <vehicle id="motorcycle36" type="motorcycle_motorcycle" depart="65.19" departLane="best">
        <route edges="118672349#2 118672349#3 118672349#4 118672349#5 118672349#6 302756236#1 302756236#4 302756236#5 118672508#0 118672508#1 -258076352 -258076350 118672484#1 -258076371"/>
    </vehicle>
    <vehicle id="motorcycle37" type="motorcycle_motorcycle" depart="67.00" departLane="best">
        <route edges="118672382#1 -118672471#1 -118672471#0 -118672238#0 -118672506#4 -118672506#3 -118672506#2 -118672506#1 -118672506#0 693810829#4"/>
    </vehicle>
    <vehicle id="motorcycle38" type="motorcycle_motorcycle" depart="68.81" departLane="best" departSpeed="max">
        <route edges="-695500803 695496271#2 695496271#3 695496270#1 302756236#7 302756236#8 302756236#9 302756236#10 694327029#0 694327029#1 673195454#1 673195454#2 199383484#1 199383484#2 199383484#3 697020756 118672290#0 118672290#1 118672506#1 118672506#2 118672506#3 118672506#4"/>
    </vehicle>
    <vehicle id="motorcycle39" type="motorcycle_motorcycle" depart="70.62" departLane="best">
        <route edges="895442884 405966002 693819571#4 693819571#5 1282340720 199383484#1 199383484#2 199383484#3 697020756 118672290#0"/>
    </vehicle>
    <vehicle id="motorcycle40" type="motorcycle_motorcycle" depart="72.43" departLane="best">
        <route edges="118672316#2 118672316#3 -118555831#7 693841066#2 693841066#3 693841066#4 302756236#4 302756236#5 118672508#0 -118672241#2"/>
    </vehicle>
    <vehicle id="motorcycle41" type="motorcycle_motorcycle" depart="74.24" departLane="best">
        <route edges="-118672369#0 693810829#2 693810829#3 118672506#0 118672506#1 118672506#2 118672506#3 118672506#4 118672238#0 118672471#0"/>
    </vehicle>
    <vehicle id="motorcycle42" type="motorcycle_motorcycle" depart="76.05" departLane="best">
        <route edges="302756236#9 302756236#10 694327029#0 694327029#1 697028016#0 697028016#2 697028016#3 697028016#5"/>
    </vehicle>
    <vehicle id="motorcycle43" type="motorcycle_motorcycle" depart="77.86" departLane="best">
        <route edges="-118672259 693810829#3 693810829#4 693810829#5 693810829#6 1282340721#1 696257601#0 696257601#1 695496271#0 695496271#2 695496271#3 695496270#1 -676441605#3 -676441605#2 -676441605#1"/>
    </vehicle>
    <vehicle id="motorcycle44" type="motorcycle_motorcycle" depart="79.67" departLane="best" departSpeed="max">
        <route edges="895441570 696463774#0 696463774#1 295842845#2 295842845#3 295842845#4 295842845#5 295842845#6 118555831#0 118555831#1 118555831#2 118555831#3 118555831#4 118555831#5 118555831#6 118555831#7 -118672316#3 -118672316#2"/>
    </vehicle>
    <vehicle id="motorcycle45" type="motorcycle_motorcycle" depart="81.48" departLane="best">
        <route edges="-697028016#1 673195454#1 673195454#2 199383484#1 199383484#2 199383484#3 1385690809#0 -1315633568 658076318#0 118672330#0 118672330#2 118672330#3 672811722"/>
    </vehicle>
    <vehicle id="motorcycle46" type="motorcycle_motorcycle" depart="83.29" departLane="best">
        <route edges="-118555831#5 -118555831#4 676441605#1 676441605#2 676441605#3 302756236#7 302756236#8 302756236#9 302756236#10 694327029#0 694327029#1 697028016#0 697028016#2 697028016#3 697028016#5 697028016#6 697028016#7 697028016#9 258076370"/>
    </vehicle>
    <vehicle id="motorcycle47" type="motorcycle_motorcycle" depart="85.10" departLane="best">
        <route edges="-295842845#5 -295842845#4 -295842845#3 -295842845#2 -696463774#1 -696463774#0 -895441570 693819571#0 693819571#1 693819571#3 693819571#4 693819571#5 1282340720 199383484#1 199383484#2 199383484#3 697020756 118672290#0 118672290#1 118672506#1 118672506#2 118672487#0 118672487#1 118672495#0"/>
    </vehicle>
    <vehicle id="motorcycle48" type="motorcycle_motorcycle" depart="86.91" departLane="best">
        <route edges="-118672369#1 -118672369#0 693810829#2 693810829#3 693810829#4 693810829#5 693810829#6 1282340721#1 696257601#0 696257601#1 695496271#0 695496271#2 695496271#3 695496270#1 695838784#0 695838784#1 695838784#4 -118672349#6 -118672349#5 -118672349#4 -118672423#1 -118672622#2 -118672622#1 -828696690"/>
    </vehicle>
    <vehicle id="motorcycle49" type="motorcycle_motorcycle" depart="88.73" departLane="best">
        <route edges="118555831#10 118672622#2 118672423#1 118672349#4 118672349#5 118672349#6 695838782#1"/>
    </vehicle>
    <vehicle id="motorcycle50" type="motorcycle_motorcycle" depart="90.54" departLane="best">
        <route edges="672811721#4 -118672253#0 -118672383#4 -118672495#5 -118672495#4 -118672382#2 -118672382#1 -118672506#5 -118672506#4 -118672506#3 -118672506#2 -118672506#1 -118672506#0 693810829#4 693810829#5 693810829#6 302763977#1 302763977#2 302763977#3 -258076340 697028016#5 697028016#6 697028016#7 697028016#9 697028016#10 697028016#11 -118672484#4 -258076371"/>
    </vehicle>
    <vehicle id="motorcycle51" type="motorcycle_motorcycle" depart="92.35" departLane="best">
        <route edges="118672241#5 118672241#6 697028016#3 697028016#5 697028016#6 697028016#7 697210392 -673151156#3 -673151156#2 -673151156#1 -673151156#0 -118672470#4 -118672470#3 -118672470#2 -118672470#1"/>
    </vehicle>
    <vehicle id="motorcycle52" type="motorcycle_motorcycle" depart="94.16" departLane="best">
        <route edges="693810829#3 118672506#0 118672290#2 118672290#3 118672290#4 673151156#0 673151156#1"/>
    </vehicle>
    <vehicle id="motorcycle53" type="motorcycle_motorcycle" depart="95.97" departLane="best">
        <route edges="302765756#1 1280089210 -1280089209#1 -1280089209#0 658076483#0 658076483#1 658076483#2 658318010 673195455#0 673195455#1 673195455#2 199383484#1 199383484#2 199383484#3 697020756 118672290#0 118672290#1 118672506#1 118672506#2 118672487#0"/>
    </vehicle>
    <vehicle id="motorcycle54" type="motorcycle_motorcycle" depart="97.78" departLane="best">
        <route edges="118672433#0 -118672433#0"/>
    </vehicle>
    <vehicle id="motorcycle55" type="motorcycle_motorcycle" depart="99.59" departLane="best">
        <route edges="295853905 295853906#1 118672312#1 -118555831#4 676441605#1 676441605#2 676441605#3 302756236#7 302756236#8 302756236#9 302756236#10 694327029#0 694327029#1 697028016#0 697028016#2 697028016#3 697028016#5 697028016#6 697028016#7 697210392 693810829#0 693810829#2 693810829#3 693810829#4 693810829#5 118672338#0 118672338#1"/>
    </vehicle>
    <vehicle id="motorcycle56" type="motorcycle_motorcycle" depart="101.40" departLane="best">
        <route edges="-118555831#0 -295842845#6 -828696689#1 -828696689#0 673151153#2 303500261#0 693819571#3 -405966002"/>
    </vehicle>
    <vehicle id="motorcycle57" type="motorcycle_motorcycle" depart="103.21" departLane="best">
        <route edges="-118556995#1 -118556995#0 118672349#5 118672349#6 302756236#1 302756236#4 302756236#5 302756236#6 302756236#7 302756236#8 302756236#9 302756236#10 694327029#0 694327029#1 695496271#0"/>
    </vehicle>
    <vehicle id="motorcycle58" type="motorcycle_motorcycle" depart="105.02" departLane="best">
        <route edges="672811722 -118672383#0 118672375#4 -118672330#2 641463541"/>
    </vehicle>
    <vehicle id="motorcycle59" type="motorcycle_motorcycle" depart="106.83" departLane="best">
        <route edges="672811722 -118672383#0 -118672375#3 -118672375#2 -118672375#1 118672433#1 -118672506#1 -118672506#0 693810829#4 693810829#5 693810829#6 1282340721#1 696257601#0 696257601#1 -295842845#13 -295842845#10 -295842845#9 -303500262#1 -303500262#0 118672230#1 695749017"/>
    </vehicle>
    <vehicle id="motorcycle60" type="motorcycle_motorcycle" depart="108.64" departLane="best">
        <route edges="-118672312#2 118555831#5 118555831#6 693841066#2 693841066#3 693841066#4 302756236#4 302756236#5 118672508#0 118672241#3 118672241#4"/>
    </vehicle>
    <vehicle id="motorcycle61" type="motorcycle_motorcycle" depart="110.45" departLane="best">
        <route edges="-118672270#3 -118672270#2 -118672270#1 -118672270#0 295842845#5 -828696689#1 -828696689#0 673151153#2 303500261#0 302751283#5 302751283#6 302751283#7 302765759#0 302765759#1 302765759#2 302765738#0 302765738#1 1280089210 1280089208#0 641403961 641403957#0 641403957#1 302752531#3"/>
    </vehicle>
    <vehicle id="motorcycle62" type="motorcycle_motorcycle" depart="112.27" departLane="best">
        <route edges="295853906#1 118672312#1 -118555831#4 676441605#1 676441605#2 676441605#3 302756236#7 302756236#8 302756236#9 302756236#10 694327029#0 694327029#1 673195454#1 673195454#2 199383484#1 199383484#2 199383484#3 697020756 118672290#0 118672290#1 118672506#1 118672506#2 118672506#3 118672506#4 118672238#0 118672471#0 118672471#1 -118672382#1"/>
    </vehicle>
    <vehicle id="motorcycle63" type="motorcycle_motorcycle" depart="114.08" departLane="best">
        <route edges="-118556995#5 -118556995#4 -118556995#3 -118556995#2 -118556995#1 -118556995#0 118672349#5"/>
    </vehicle>
    <vehicle id="motorcycle64" type="motorcycle_motorcycle" depart="115.89" departLane="best">
        <route edges="-295842845#4 -295842845#3 -295842845#2 -696463774#1 -696463774#0 -895441570 693819571#0 693819571#1 693819571#3 693819571#4 693819571#5 1282340720 199383484#1 199383484#2 199383484#3 697020756 118672290#0 118672290#1 118672290#2 118672290#3 118672290#4 673151156#0 673151156#1 673151156#2"/>
    </vehicle>
    <vehicle id="motorcycle65" type="motorcycle_motorcycle" depart="117.70" departLane="best">
        <route edges="-696463777 -405966003#0 295842845#12 673195454#1 673195454#2 199383484#1 199383484#2 199383484#3 697020756 118672290#0 118672290#1 118672506#1 118672506#2 118672506#3 118672506#4 118672506#5 118672382#1 118672382#2 118672495#4 -118672501#1"/>
    </vehicle>
    <vehicle id="motorcycle66" type="motorcycle_motorcycle" depart="119.51" departLane="best">
        <route edges="118672312#4 118556995#5 118556995#6 118556995#7 673151165 303500262#0 303500262#1 -295842845#7 -295842845#6 -295842845#5 -295842845#4 -295842845#3 -295842845#2"/>
    </vehicle>
    <vehicle id="motorcycle67" type="motorcycle_motorcycle" depart="121.32" departLane="best">
        <route edges="-118672495#4 -118672382#2 -118672382#1 -118672506#5 -118672506#4 -118672506#3 -118672506#2 -118672506#1 -118672506#0 693810829#4 693810829#5 693810829#6 1282340721#1 696257601#0 696257601#1 -295842845#13 -295842845#10 -295842845#9 -303500262#1 -303500262#0"/>
    </vehicle>
    <vehicle id="motorcycle68" type="motorcycle_motorcycle" depart="123.13" departLane="best" departSpeed="max">
        <route edges="895441570 673151153#0 673151153#2 895442884 405966002 693819571#4 693819571#5 1282340720 199383484#1 199383484#2 199383484#3 1385690809#0 -1315633568 695635073 118672501#0 118672501#1 118672495#5 118672495#6"/>
    </vehicle>
    <vehicle id="motorcycle69" type="motorcycle_motorcycle" depart="124.94" departLane="best" departSpeed="max">
        <route edges="-697211221 -697028016#10 -697028016#9 697210392 -673151156#3 -673151156#2 -673151156#1 -673151156#0 -118672304#1 -118672304#0"/>
    </vehicle>
    <vehicle id="motorcycle70" type="motorcycle_motorcycle" depart="126.75" departLane="best">
        <route edges="-118672375#5 -118672375#4 -118672375#3 118672501#1 -118672495#4 -118672495#3 -118672510#1 -118672510#0"/>
    </vehicle>
    <vehicle id="motorcycle71" type="motorcycle_motorcycle" depart="128.56" departLane="best">
        <route edges="657772383#1 657772383#2 657772383#3 -302763996#4 -302763996#3 -302763996#2 118672359#0 -118672253#4 -118672253#3 118672432#0"/>
    </vehicle>
    <vehicle id="motorcycle72" type="motorcycle_motorcycle" depart="130.37" departLane="best">
        <route edges="-118672622#1 -118672622#0 -295853898#1 118672349#0 118672349#1 118672349#2 118672349#3 118672349#4 118672349#5 118672349#6 302756236#1 302756236#4 302756236#5 302756236#6 302756236#7 302756236#8 302756236#9 302756236#10 694327029#0 694327029#1 673195454#1 673195454#2 199383484#1 199383484#2 199383484#3 697020756 118672290#0 118672375#0 118672375#1 118672382#0 -118672506#5"/>
    </vehicle>
    <vehicle id="motorcycle73" type="motorcycle_motorcycle" depart="132.18" departLane="best">
        <route edges="-118672270#4 -118672270#3 -118672270#2 -118672270#1 -118672270#0 295842845#5 295842845#6 295842845#7 295842845#9 295842845#10 295842845#12 697028016#0 697028016#2 697028016#3 697028016#5 697028016#6 697028016#7 258076367 -258076350 118672484#1"/>
    </vehicle>
    <vehicle id="motorcycle74" type="motorcycle_motorcycle" depart="133.99" departLane="best">
        <route edges="-118672622#0 -295853898#1 118672349#0 118672349#1 118672349#2 -118555831#9 -118555831#8 -118555831#7 -118555831#6 -118555831#5 -118555831#4 -118555831#3 -118555831#2 -118555831#1 -118555831#0 -295842845#6 -828696689#1 -828696689#0 673151153#2 895442884 405966002 693819571#4"/>
    </vehicle>
    <vehicle id="motorcycle75" type="motorcycle_motorcycle" depart="135.80" departLane="best">
        <route edges="658076318#0 118672330#0 118672330#2 -118672375#4 -118672375#3 -118672375#2 -118672375#1 118672433#1 -118672506#1 -118672506#0 693810829#4 693810829#5 693810829#6 1282340721#1 696257601#0 696257601#1 -295842845#13 -295842845#10 -295842845#9 -295842845#7 118555831#0 118555831#1 118555831#2 -118672486#1 -118672486#0 -118672270#3 -118672270#2"/>
    </vehicle>
    <vehicle id="motorcycle76" type="motorcycle_motorcycle" depart="137.62" departLane="best">
        <route edges="1280089210 -1280089209#1 -1280089209#0 658076483#0 658076483#1 658076483#2 658318010 673195455#0 673195455#1 673195455#2 199383484#1 199383484#2 199383484#3 697020756 118672290#0 118672290#1 118672506#1 118672506#2 118672506#3 118672506#4 118672238#0 118672471#0 118672510#0"/>
    </vehicle>
    <vehicle id="motorcycle77" type="motorcycle_motorcycle" depart="139.43" departLane="best">
        <route edges="-118672506#2 -118672433#1 118672375#1 118672375#2 118672375#3 118672383#0"/>
    </vehicle>
    <vehicle id="motorcycle78" type="motorcycle_motorcycle" depart="141.24" departLane="best">
        <route edges="-693841066#12 -693841066#11 -693841066#10 118672241#1 118672241#2 118672508#1 -258076352 -258076367 697210392 -673151156#3 -673151156#2 -673151156#1 -673151156#0 -118672470#4 -118672470#3 118672487#1 118672495#0 118672495#1 118672495#2 118672495#3 118672382#3"/>
    </vehicle>
    <vehicle id="motorcycle79" type="motorcycle_motorcycle" depart="143.05" departLane="best">
        <route edges="302765738#1 1280089210 -1280089209#1 -1280089209#0 658076483#0 658076483#1 658076483#2 658318010 673195455#0 673195455#1 673195455#2 1282340721#1 696257601#0 696257601#1 697028016#0 697028016#2 697028016#3 697028016#5 697028016#6 697028016#7 697028016#9 697028016#10 697028016#11 -118672484#4 -118672484#2"/>
    </vehicle>
    <vehicle id="motorcycle80" type="motorcycle_motorcycle" depart="144.86" departLane="best">
        <route edges="-118672330#2 641463541 118672501#0 -118672375#2 -118672375#1 118672433#1 -118672506#1 -118672506#0 693810829#4 693810829#5 693810829#6 1282340721#1 696257601#0 696257601#1 -295842845#13 -295842845#10 -295842845#9 -295842845#7 -295842845#6 -828696689#1"/>
    </vehicle>
    <vehicle id="motorcycle81" type="motorcycle_motorcycle" depart="146.67" departLane="best">
        <route edges="697020756 118672290#0 118672290#1 -118672506#0 693810829#4 693810829#5 693810829#6 1282340721#1 696257601#0 696257601#1 695496271#0 695496271#2 695496271#3 695496270#1 -676441605#3 -676441605#2 118556995#6"/>
    </vehicle>
    <vehicle id="motorcycle82" type="motorcycle_motorcycle" depart="148.48" departLane="best">
        <route edges="-258076337 -697028016#1 695496271#0 695496271#2 695496271#3 695496270#1 695838784#0 695838784#1 695838784#4 -118672349#6 -118672349#5 -118672349#4 -118672349#3 -118672349#2 118672617#0 118672617#1"/>
    </vehicle>
    <vehicle id="motorcycle83" type="motorcycle_motorcycle" depart="150.29" departLane="best">
        <route edges="828696684 -697028016#7 -697028016#6 -697028016#5 -697028016#3 -697028016#2 -697028016#1 695496271#0 695496271#2 695496271#3 695496270#1 695838784#0 695838784#1 -693841066#5 -693841066#3 -693841066#2 118555831#7 -118672316#3"/>
    </vehicle>
    <vehicle id="motorcycle84" type="motorcycle_motorcycle" depart="152.10" departLane="best">
        <route edges="658076318#2 302763996#4 302752531#0 -1381019928#1"/>
    </vehicle>
    <vehicle id="motorcycle85" type="motorcycle_motorcycle" depart="153.91" departLane="best">
        <route edges="-118672486#2 118555831#3 118555831#4"/>
    </vehicle>