<?xml version="1.0" encoding="UTF-8"?>

<!-- generated on 2025-05-15 12:42:37.120325 by randomTrips.py v1_22_0+0002-63e50f52594
<configuration>
    <net-file value="osm.net.xml.gz"/>
    <output-trip-file value="osm.motorcycle.trips.xml"/>
    <route-file value="osm.motorcycle.rou.xml"/>
    <prefix value="motorcycle"/>
    <trip-attributes value="departLane=&quot;best&quot;"/>
    <fringe-start-attributes value="departSpeed=&quot;max&quot;"/>
    <vehicle-class value="motorcycle"/>
    <fringe-factor value="2"/>
    <vclass value="motorcycle"/>
    <via-edge-types value="highway.motorway,highway.motorway_link,highway.trunk_link,highway.primary_link,highway.secondary_link,highway.tertiary_link"/>
    <max-distance value="1200.0"/>
    <remove-loops value="True"/>
    <validate value="True"/>
    <insertion-density value="40.0"/>
</configuration>
-->

<!-- generated on 2025-05-15 12:42:36 by Eclipse SUMO duarouter Version 1.22.0
<duarouterConfiguration xmlns:xsi="http://www.w3.org/2001/XMLSchema-instance" xsi:noNamespaceSchemaLocation="http://sumo.dlr.de/xsd/duarouterConfiguration.xsd">

    <input>
        <net-file value="osm.net.xml.gz"/>
        <route-files value="osm.motorcycle.trips.xml"/>
    </input>

    <output>
        <output-file value="osm.motorcycle.trips.xml.tmp"/>
        <alternatives-output value="NUL"/>
        <write-trips value="true"/>
    </output>

    <processing>
        <remove-loops value="true"/>
    </processing>

    <time>
        <begin value="0.0"/>
        <end value="3600.0"/>
    </time>

    <report>
        <no-warnings value="true"/>
        <ignore-errors value="true"/>
        <no-step-log value="true"/>
    </report>

</duarouterConfiguration>
-->

<routes xmlns:xsi="http://www.w3.org/2001/XMLSchema-instance" xsi:noNamespaceSchemaLocation="http://sumo.dlr.de/xsd/routes_file.xsd">
    <vType id="motorcycle_motorcycle" vClass="motorcycle"/>
    <trip id="motorcycle0" type="motorcycle_motorcycle" depart="0.00" departLane="best" from="118672470#4" to="-118556995#5"/>
    <trip id="motorcycle1" type="motorcycle_motorcycle" depart="1.81" departLane="best" from="-295853905" to="118672241#3"/>
    <trip id="motorcycle2" type="motorcycle_motorcycle" depart="3.62" departLane="best" from="258076352" to="-118672622#1"/>
    <trip id="motorcycle3" type="motorcycle_motorcycle" depart="5.43" departLane="best" from="696257601#1" to="-118672312#1"/>
    <trip id="motorcycle4" type="motorcycle_motorcycle" depart="7.24" departLane="best" from="-696463777" to="-118672230#0"/>
    <trip id="motorcycle5" type="motorcycle_motorcycle" depart="9.05" departLane="best" from="-118672506#5" to="118672270#2"/>
    <trip id="motorcycle6" type="motorcycle_motorcycle" depart="10.86" departLane="best" from="-118556995#6" to="-118672487#1"/>
    <trip id="motorcycle7" type="motorcycle_motorcycle" depart="12.68" departLane="best" from="118672486#0" to="118672349#2"/>
    <trip id="motorcycle8" type="motorcycle_motorcycle" depart="14.49" departLane="best" from="302765756#0" to="118555831#2"/>
    <trip id="motorcycle9" type="motorcycle_motorcycle" depart="16.30" departLane="best" from="302763996#4" to="1381019928#0"/>
    <trip id="motorcycle10" type="motorcycle_motorcycle" depart="18.11" departLane="best" from="-658076318#0" to="-118672433#1"/>
    <trip id="motorcycle11" type="motorcycle_motorcycle" depart="19.92" departLane="best" from="695635073" to="-641403960#2"/>
    <trip id="motorcycle12" type="motorcycle_motorcycle" depart="21.73" departLane="best" from="-118672316#3" to="-118672316#2"/>
    <trip id="motorcycle13" type="motorcycle_motorcycle" depart="23.54" departLane="best" from="641433845#1" to="118672433#6"/>
    <trip id="motorcycle14" type="motorcycle_motorcycle" depart="25.35" departLane="best" from="302765738#0" to="295842845#2"/>
    <trip id="motorcycle15" type="motorcycle_motorcycle" depart="27.16" departLane="best" from="118672312#2" to="697020756"/>
    <trip id="motorcycle16" type="motorcycle_motorcycle" depart="28.97" departLane="best" from="-405966002" to="118672458#3"/>
    <trip id="motorcycle17" type="motorcycle_motorcycle" depart="30.78" departLane="best" from="658076318#2" to="118672383#2"/>
    <trip id="motorcycle18" type="motorcycle_motorcycle" depart="32.59" departLane="best" from="1280089210" to="-118672241#1"/>
    <trip id="motorcycle19" type="motorcycle_motorcycle" depart="34.40" departLane="best" from="118672304#0" to="-118672622#1"/>
    <trip id="motorcycle20" type="motorcycle_motorcycle" depart="36.21" departLane="best" from="-118672349#1" to="-295842845#7"/>
    <trip id="motorcycle21" type="motorcycle_motorcycle" depart="38.03" departLane="best" from="118672470#1" to="-673151153#0"/>
    <trip id="motorcycle22" type="motorcycle_motorcycle" depart="39.84" departLane="best" from="-673151163#1" to="-118672495#6"/>
    <trip id="motorcycle23" type="motorcycle_motorcycle" depart="41.65" departLane="best" from="295842845#5" to="695500803"/>
    <trip id="motorcycle24" type="motorcycle_motorcycle" depart="43.46" departLane="best" from="118672484#1" to="118672446#0"/>
    <trip id="motorcycle25" type="motorcycle_motorcycle" depart="45.27" departLane="best" from="-118672458#3" to="295842845#12"/>
    <trip id="motorcycle26" type="motorcycle_motorcycle" depart="47.08" departLane="best" from="-118672446#0" to="-675771882"/>
    <trip id="motorcycle27" type="motorcycle_motorcycle" depart="48.89" departLane="best" from="828696689#0" to="118672487#1"/>
    <trip id="motorcycle28" type="motorcycle_motorcycle" depart="50.70" departLane="best" from="118672338#2" to="-1280089209#0"/>
    <trip id="motorcycle29" type="motorcycle_motorcycle" depart="52.51" departLane="best" from="641403960#2" to="302763977#3"/>
    <trip id="motorcycle30" type="motorcycle_motorcycle" depart="54.32" departLane="best" from="-118672622#0" to="-118672230#2"/>
    <trip id="motorcycle31" type="motorcycle_motorcycle" depart="56.13" departLane="best" from="-641403957#0" to="-295842845#10"/>
    <trip id="motorcycle32" type="motorcycle_motorcycle" depart="57.94" departLane="best" from="-118672506#0" to="695745754"/>
    <trip id="motorcycle33" type="motorcycle_motorcycle" depart="59.75" departLane="best" from="118672487#0" to="693841066#11"/>
    <trip id="motorcycle34" type="motorcycle_motorcycle" depart="61.56" departLane="best" from="693810829#4" to="118556995#1"/>
    <trip id="motorcycle35" type="motorcycle_motorcycle" depart="63.38" departLane="best" from="-295842845#4" to="-1381019928#0"/>
    <trip id="motorcycle36" type="motorcycle_motorcycle" depart="65.19" departLane="best" from="118672349#2" to="-258076371"/>
    <trip id="motorcycle37" type="motorcycle_motorcycle" depart="67.00" departLane="best" from="118672382#1" to="693810829#4"/>
    <trip id="motorcycle38" type="motorcycle_motorcycle" depart="68.81" departLane="best" departSpeed="max" from="-695500803" to="118672506#4"/>
    <trip id="motorcycle39" type="motorcycle_motorcycle" depart="70.62" departLane="best" from="895442884" to="118672290#0"/>
    <trip id="motorcycle40" type="motorcycle_motorcycle" depart="72.43" departLane="best" from="118672316#2" to="-118672241#2"/>
    <trip id="motorcycle41" type="motorcycle_motorcycle" depart="74.24" departLane="best" from="-118672369#0" to="118672471#0"/>
    <trip id="motorcycle42" type="motorcycle_motorcycle" depart="76.05" departLane="best" from="302756236#9" to="697028016#5"/>
    <trip id="motorcycle43" type="motorcycle_motorcycle" depart="77.86" departLane="best" from="-118672259" to="-676441605#1"/>
    <trip id="motorcycle44" type="motorcycle_motorcycle" depart="79.67" departLane="best" departSpeed="max" from="895441570" to="-118672316#2"/>
    <trip id="motorcycle45" type="motorcycle_motorcycle" depart="81.48" departLane="best" from="-697028016#1" to="672811722"/>
    <trip id="motorcycle46" type="motorcycle_motorcycle" depart="83.29" departLane="best" from="-118555831#5" to="258076370"/>
    <trip id="motorcycle47" type="motorcycle_motorcycle" depart="85.10" departLane="best" from="-295842845#5" to="118672495#0"/>
    <trip id="motorcycle48" type="motorcycle_motorcycle" depart="86.91" departLane="best" from="-118672369#1" to="-828696690"/>
    <trip id="motorcycle49" type="motorcycle_motorcycle" depart="88.73" departLane="best" from="118555831#10" to="695838782#1"/>
    <trip id="motorcycle50" type="motorcycle_motorcycle" depart="90.54" departLane="best" from="672811721#4" to="-258076371"/>
    <trip id="motorcycle51" type="motorcycle_motorcycle" depart="92.35" departLane="best" from="118672241#5" to="-118672470#1"/>
    <trip id="motorcycle52" type="motorcycle_motorcycle" depart="94.16" departLane="best" from="693810829#3" to="673151156#1"/>
    <trip id="motorcycle53" type="motorcycle_motorcycle" depart="95.97" departLane="best" from="302765756#1" to="118672487#0"/>
    <trip id="motorcycle54" type="motorcycle_motorcycle" depart="97.78" departLane="best" from="118672433#0" to="-118672433#0"/>
    <trip id="motorcycle55" type="motorcycle_motorcycle" depart="99.59" departLane="best" from="295853905" to="118672338#1"/>
    <trip id="motorcycle56" type="motorcycle_motorcycle" depart="101.40" departLane="best" from="-118555831#0" to="-405966002"/>
    <trip id="motorcycle57" type="motorcycle_motorcycle" depart="103.21" departLane="best" from="-118556995#1" to="695496271#0"/>
    <trip id="motorcycle58" type="motorcycle_motorcycle" depart="105.02" departLane="best" from="672811722" to="641463541"/>
    <trip id="motorcycle59" type="motorcycle_motorcycle" depart="106.83" departLane="best" from="672811722" to="695749017"/>
    <trip id="motorcycle60" type="motorcycle_motorcycle" depart="108.64" departLane="best" from="-118672312#2" to="118672241#4"/>
    <trip id="motorcycle61" type="motorcycle_motorcycle" depart="110.45" departLane="best" from="-118672270#3" to="302752531#3"/>
    <trip id="motorcycle62" type="motorcycle_motorcycle" depart="112.27" departLane="best" from="295853906#1" to="-118672382#1"/>
    <trip id="motorcycle63" type="motorcycle_motorcycle" depart="114.08" departLane="best" from="-118556995#5" to="118672349#5"/>
    <trip id="motorcycle64" type="motorcycle_motorcycle" depart="115.89" departLane="best" from="-295842845#4" to="673151156#2"/>
    <trip id="motorcycle65" type="motorcycle_motorcycle" depart="117.70" departLane="best" from="-696463777" to="-118672501#1"/>
    <trip id="motorcycle66" type="motorcycle_motorcycle" depart="119.51" departLane="best" from="118672312#4" to="-295842845#2"/>
    <trip id="motorcycle67" type="motorcycle_motorcycle" depart="121.32" departLane="best" from="-118672495#4" to="-303500262#0"/>
    <trip id="motorcycle68" type="motorcycle_motorcycle" depart="123.13" departLane="best" departSpeed="max" from="895441570" to="118672495#6"/>
    <trip id="motorcycle69" type="motorcycle_motorcycle" depart="124.94" departLane="best" departSpeed="max" from="-697211221" to="-118672304#0"/>
    <trip id="motorcycle70" type="motorcycle_motorcycle" depart="126.75" departLane="best" from="-118672375#5" to="-118672510#0"/>
    <trip id="motorcycle71" type="motorcycle_motorcycle" depart="128.56" departLane="best" from="657772383#1" to="118672432#0"/>
    <trip id="motorcycle72" type="motorcycle_motorcycle" depart="130.37" departLane="best" from="-118672622#1" to="-118672506#5"/>
    <trip id="motorcycle73" type="motorcycle_motorcycle" depart="132.18" departLane="best" from="-118672270#4" to="118672484#1"/>
    <trip id="motorcycle74" type="motorcycle_motorcycle" depart="133.99" departLane="best" from="-118672622#0" to="693819571#4"/>
    <trip id="motorcycle75" type="motorcycle_motorcycle" depart="135.80" departLane="best" from="658076318#0" to="-118672270#2"/>
    <trip id="motorcycle76" type="motorcycle_motorcycle" depart="137.62" departLane="best" from="1280089210" to="118672510#0"/>
    <trip id="motorcycle77" type="motorcycle_motorcycle" depart="139.43" departLane="best" from="-118672506#2" to="118672383#0"/>
    <trip id="motorcycle78" type="motorcycle_motorcycle" depart="141.24" departLane="best" from="-693841066#12" to="118672382#3"/>
    <trip id="motorcycle79" type="motorcycle_motorcycle" depart="143.05" departLane="best" from="302765738#1" to="-118672484#2"/>
    <trip id="motorcycle80" type="motorcycle_motorcycle" depart="144.86" departLane="best" from="-118672330#2" to="-828696689#1"/>
    <trip id="motorcycle81" type="motorcycle_motorcycle" depart="146.67" departLane="best" from="697020756" to="118556995#6"/>
    <trip id="motorcycle82" type="motorcycle_motorcycle" depart="148.48" departLane="best" from="-258076337" to="118672617#1"/>
    <trip id="motorcycle83" type="motorcycle_motorcycle" depart="150.29" departLane="best" from="828696684" to="-118672316#3"/>
    <trip id="motorcycle84" type="motorcycle_motorcycle" depart="152.10" departLane="best" from="658076318#2" to="-1381019928#1"/>
    <trip id="motorcycle85" type="motorcycle_motorcycle" depart="153.91" departLane="best" from="-118672486#2" to="118555831#4"/>
    <trip id="motorcycle86" type="motorcycle_motorcycle" depart="155.72" departLane="best" from="-696463774#1" to="295842845#9"/>
    <trip id="motorcycle88" type="motorcycle_motorcycle" depart="159.34" departLane="best" from="-828696689#0" to="672811722"/>
    <trip id="motorcycle89" type="motorcycle_motorcycle" depart="161.15" departLane="best" from="118672330#0" to="-118672241#4"/>
    <trip id="motorcycle90" type="motorcycle_motorcycle" depart="162.97" departLane="best" from="895482086" to="657772383#0"/>
    <trip id="motorcycle91" type="motorcycle_motorcycle" depart="164.78" departLane="best" from="696463777" to="695496271#0"/>
    <trip id="motorcycle92" type="motorcycle_motorcycle" depart="166.59" departLane="best" from="641463541" to="-118672446#1"/>
    <trip id="motorcycle93" type="motorcycle_motorcycle" depart="168.40" departLane="best" from="118672230#5" to="-118672506#0"/>
    <trip id="motorcycle94" type="motorcycle_motorcycle" depart="170.21" departLane="best" from="-695635073" to="-118672253#3"/>
    <trip id="motorcycle95" type="motorcycle_motorcycle" depart="172.02" departLane="best" from="-676441607" to="697028016#7"/>
    <trip id="motorcycle96" type="motorcycle_motorcycle" depart="173.83" departLane="best" from="-118555831#11" to="-697028016#5"/>
    <trip id="motorcycle97" type="motorcycle_motorcycle" depart="175.64" departLane="best" from="695635073" to="828696689#0"/>
    <trip id="motorcycle98" type="motorcycle_motorcycle" depart="177.45" departLane="best" from="118672338#1" to="258076367"/>
    <trip id="motorcycle99" type="motorcycle_motorcycle" depart="179.26" departLane="best" from="-118672433#5" to="-302763996#3"/>
    <trip id="motorcycle100" type="motorcycle_motorcycle" depart="181.07" departLane="best" from="696463777" to="118672383#3"/>
    <trip id="motorcycle101" type="motorcycle_motorcycle" depart="182.88" departLane="best" departSpeed="max" from="118672316#0" to="302751283#1"/>
    <trip id="motorcycle102" type="motorcycle_motorcycle" depart="184.69" departLane="best" from="118672253#0" to="672811720#3"/>
    <trip id="motorcycle103" type="motorcycle_motorcycle" depart="186.51" departLane="best" departSpeed="max" from="-118672433#6" to="696235206"/>
    <trip id="motorcycle104" type="motorcycle_motorcycle" depart="188.32" departLane="best" from="118672304#0" to="-118672471#1"/>
    <trip id="motorcycle105" type="motorcycle_motorcycle" depart="190.13" departLane="best" from="118672391#0" to="118672622#0"/>
    <trip id="motorcycle106" type="motorcycle_motorcycle" depart="191.94" departLane="best" from="-1280089209#0" to="-118672375#1"/>
    <trip id="motorcycle107" type="motorcycle_motorcycle" depart="193.75" departLane="best" from="118672391#0" to="118672458#4"/>
    <trip id="motorcycle108" type="motorcycle_motorcycle" depart="195.56" departLane="best" from="-696463774#0" to="118672391#1"/>
    <trip id="motorcycle109" type="motorcycle_motorcycle" depart="197.37" departLane="best" from="118672290#0" to="695498644"/>
    <trip id="motorcycle110" type="motorcycle_motorcycle" depart="199.18" departLane="best" from="1280089210" to="693841066#11"/>
    <trip id="motorcycle111" type="motorcycle_motorcycle" depart="200.99" departLane="best" from="-118672506#1" to="302765738#1"/>
    <trip id="motorcycle112" type="motorcycle_motorcycle" depart="202.80" departLane="best" from="-641403957#0" to="302751283#5"/>
    <trip id="motorcycle113" type="motorcycle_motorcycle" depart="204.61" departLane="best" from="118672290#0" to="118556995#0"/>
    <trip id="motorcycle114" type="motorcycle_motorcycle" depart="206.42" departLane="best" from="-895442884" to="828696689#1"/>
    <trip id="motorcycle115" type="motorcycle_motorcycle" depart="208.23" departLane="best" from="118672290#1" to="-118672506#0"/>
    <trip id="motorcycle116" type="motorcycle_motorcycle" depart="210.04" departLane="best" from="295842845#4" to="695498644"/>
    <trip id="motorcycle117" type="motorcycle_motorcycle" depart="211.86" departLane="best" from="673151153#2" to="673195454#2"/>
    <trip id="motorcycle118" type="motorcycle_motorcycle" depart="213.67" departLane="best" from="-673151163#1" to="-118672433#3"/>
    <trip id="motorcycle119" type="motorcycle_motorcycle" depart="215.48" departLane="best" from="641403957#1" to="1385690809#0"/>
    <trip id="motorcycle120" type="motorcycle_motorcycle" depart="217.29" departLane="best" from="118672433#1" to="697210392"/>
    <trip id="motorcycle121" type="motorcycle_motorcycle" depart="219.10" departLane="best" from="118672486#2" to="-118555831#3"/>
    <trip id="motorcycle122" type="motorcycle_motorcycle" depart="220.91" departLane="best" from="303500261#0" to="302765738#0"/>
    <trip id="motorcycle123" type="motorcycle_motorcycle" depart="222.72" departLane="best" from="118672495#4" to="-695635073"/>
    <trip id="motorcycle124" type="motorcycle_motorcycle" depart="224.53" departLane="best" from="-118672383#3" to="-118672369#0"/>
    <trip id="motorcycle125" type="motorcycle_motorcycle" depart="226.34" departLane="best" from="-295853898#0" to="118672443#0"/>
    <trip id="motorcycle126" type="motorcycle_motorcycle" depart="228.15" departLane="best" from="1385690808#0" to="-118672495#2"/>
    <trip id="motorcycle127" type="motorcycle_motorcycle" depart="229.96" departLane="best" from="118672470#0" to="-295842845#0"/>
    <trip id="motorcycle128" type="motorcycle_motorcycle" depart="231.77" departLane="best" from="118672238#1" to="693819571#3"/>
    <trip id="motorcycle129" type="motorcycle_motorcycle" depart="233.58" departLane="best" from="697020756" to="-295842845#7"/>
    <trip id="motorcycle130" type="motorcycle_motorcycle" depart="235.39" departLane="best" from="-118555831#10" to="302756236#8"/>
    <trip id="motorcycle131" type="motorcycle_motorcycle" depart="237.21" departLane="best" from="118672470#2" to="258076370"/>
    <trip id="motorcycle132" type="motorcycle_motorcycle" depart="239.02" departLane="best" from="-258076370" to="672811720#3"/>
    <trip id="motorcycle133" type="motorcycle_motorcycle" depart="240.83" departLane="best" from="-697028016#10" to="-118555831#4"/>
    <trip id="motorcycle134" type="motorcycle_motorcycle" depart="242.64" departLane="best" from="-118672290#2" to="673195455#1"/>
    <trip id="motorcycle135" type="motorcycle_motorcycle" depart="244.45" departLane="best" from="676441605#3" to="118672349#2"/>
    <trip id="motorcycle136" type="motorcycle_motorcycle" depart="246.26" departLane="best" from="641403957#1" to="118672391#1"/>
    <trip id="motorcycle137" type="motorcycle_motorcycle" depart="248.07" departLane="best" from="118672433#0" to="-118672382#0"/>
    <trip id="motorcycle138" type="motorcycle_motorcycle" depart="249.88" departLane="best" from="-372298256#0" to="693810829#5"/>
    <trip id="motorcycle139" type="motorcycle_motorcycle" depart="251.69" departLane="best" from="302763977#3" to="672811722"/>
    <trip id="motorcycle140" type="motorcycle_motorcycle" depart="253.50" departLane="best" from="673195455#2" to="-118672501#0"/>
    <trip id="motorcycle141" type="motorcycle_motorcycle" depart="255.31" departLane="best" from="-258076350" to="-118672330#2"/>
    <trip id="motorcycle142" type="motorcycle_motorcycle" depart="257.12" departLane="best" from="302752531#3" to="673195455#2"/>
    <trip id="motorcycle143" type="motorcycle_motorcycle" depart="258.93" departLane="best" departSpeed="max" from="-695745891" to="118672470#0"/>
    <trip id="motorcycle144" type="motorcycle_motorcycle" depart="260.74" departLane="best" from="-118672433#4" to="695496271#0"/>
    <trip id="motorcycle145" type="motorcycle_motorcycle" depart="262.56" departLane="best" from="658076483#1" to="697028016#10"/>
    <trip id="motorcycle146" type="motorcycle_motorcycle" depart="264.37" departLane="best" from="302765756#1" to="673195455#0"/>
    <trip id="motorcycle147" type="motorcycle_motorcycle" depart="266.18" departLane="best" from="-118556995#4" to="295842845#7"/>
    <trip id="motorcycle148" type="motorcycle_motorcycle" depart="267.99" departLane="best" from="-641463541" to="695496271#2"/>
    <trip id="motorcycle149" type="motorcycle_motorcycle" depart="269.80" departLane="best" from="302763996#2" to="-673151153#2"/>
    <trip id="motorcycle150" type="motorcycle_motorcycle" depart="271.61" departLane="best" from="302765756#1" to="-295842845#10"/>
    <trip id="motorcycle151" type="motorcycle_motorcycle" depart="273.42" departLane="best" from="302756236#6" to="-118672349#2"/>
    <trip id="motorcycle152" type="motorcycle_motorcycle" depart="275.23" departLane="best" from="672811721#2" to="672811721#4"/>
    <trip id="motorcycle153" type="motorcycle_motorcycle" depart="277.04" departLane="best" from="-118672510#0" to="641403957#0"/>
    <trip id="motorcycle154" type="motorcycle_motorcycle" depart="278.85" departLane="best" from="-118555831#5" to="302765759#0"/>
    <trip id="motorcycle155" type="motorcycle_motorcycle" depart="280.66" departLane="best" from="302763977#2" to="-118672617#0"/>
    <trip id="motorcycle156" type="motorcycle_motorcycle" depart="282.47" departLane="best" from="-118556995#4" to="-118672486#0"/>
    <trip id="motorcycle157" type="motorcycle_motorcycle" depart="284.28" departLane="best" from="-641403961" to="-673151153#2"/>
    <trip id="motorcycle158" type="motorcycle_motorcycle" depart="286.10" departLane="best" from="696463774#1" to="295842845#9"/>
    <trip id="motorcycle159" type="motorcycle_motorcycle" depart="287.91" departLane="best" from="-118672238#1" to="-693841066#3"/>
    <trip id="motorcycle160" type="motorcycle_motorcycle" depart="289.72" departLane="best" from="697028016#7" to="118672330#3"/>
    <trip id="motorcycle161" type="motorcycle_motorcycle" depart="291.53" departLane="best" from="693841066#4" to="-118672369#0"/>
    <trip id="motorcycle162" type="motorcycle_motorcycle" depart="293.34" departLane="best" from="697020756" to="-118672470#1"/>
    <trip id="motorcycle163" type="motorcycle_motorcycle" depart="295.15" departLane="best" from="696257601#0" to="-295842845#0"/>
    <trip id="motorcycle164" type="motorcycle_motorcycle" depart="296.96" departLane="best" from="-118672349#6" to="-828696690"/>
    <trip id="motorcycle165" type="motorcycle_motorcycle" depart="298.77" departLane="best" from="-258076337" to="-303500262#1"/>
    <trip id="motorcycle166" type="motorcycle_motorcycle" depart="300.58" departLane="best" from="118672432#1" to="118672290#1"/>
    <trip id="motorcycle167" type="motorcycle_motorcycle" depart="302.39" departLane="best" from="-258076371" to="199383484#1"/>
    <trip id="motorcycle168" type="motorcycle_motorcycle" depart="304.20" departLane="best" from="-118555831#1" to="694327029#0"/>
    <trip id="motorcycle169" type="motorcycle_motorcycle" depart="306.01" departLane="best" from="118672312#3" to="258076369"/>
    <trip id="motorcycle170" type="motorcycle_motorcycle" depart="307.82" departLane="best" from="258076371" to="118672510#1"/>
    <trip id="motorcycle171" type="motorcycle_motorcycle" depart="309.63" departLane="best" from="-673151156#2" to="-118672270#2"/>
    <trip id="motorcycle172" type="motorcycle_motorcycle" depart="311.45" departLane="best" from="118672495#5" to="-641403958"/>
    <trip id="motorcycle173" type="motorcycle_motorcycle" depart="313.26" departLane="best" from="-405966003#0" to="658076483#1"/>
    <trip id="motorcycle174" type="motorcycle_motorcycle" depart="315.07" departLane="best" from="1385690809#0" to="-302765738#1"/>
    <trip id="motorcycle175" type="motorcycle_motorcycle" depart="316.88" departLane="best" departSpeed="max" from="-118672382#3" to="-697028016#2"/>
    <trip id="motorcycle176" type="motorcycle_motorcycle" depart="318.69" departLane="best" from="-693841066#8" to="118672622#2"/>
    <trip id="motorcycle177" type="motorcycle_motorcycle" depart="320.50" departLane="best" from="-676441605#2" to="118672458#1"/>
    <trip id="motorcycle178" type="motorcycle_motorcycle" depart="322.31" departLane="best" from="302765759#2" to="-118672349#4"/>
    <trip id="motorcycle179" type="motorcycle_motorcycle" depart="324.12" departLane="best" from="-697028016#2" to="118672383#4"/>
    <trip id="motorcycle180" type="motorcycle_motorcycle" depart="325.93" departLane="best" from="118672487#0" to="-118556995#5"/>
    <trip id="motorcycle181" type="motorcycle_motorcycle" depart="327.74" departLane="best" from="-828696688" to="-118672506#0"/>
    <trip id="motorcycle182" type="motorcycle_motorcycle" depart="329.55" departLane="best" from="118556995#4" to="693819571#0"/>
    <trip id="motorcycle183" type="motorcycle_motorcycle" depart="331.36" departLane="best" from="302763977#3" to="-118672458#0"/>
    <trip id="motorcycle184" type="motorcycle_motorcycle" depart="333.17" departLane="best" from="-118672312#2" to="118672290#4"/>
    <trip id="motorcycle185" type="motorcycle_motorcycle" depart="334.98" departLane="best" from="303500262#0" to="302751283#5"/>
    <trip id="motorcycle186" type="motorcycle_motorcycle" depart="336.80" departLane="best" from="118672506#1" to="-118672510#0"/>
    <trip id="motorcycle187" type="motorcycle_motorcycle" depart="338.61" departLane="best" from="-118672495#3" to="-118556995#4"/>
    <trip id="motorcycle188" type="motorcycle_motorcycle" depart="340.42" departLane="best" from="-258076337" to="118672230#5"/>
    <trip id="motorcycle189" type="motorcycle_motorcycle" depart="342.23" departLane="best" departSpeed="max" from="-696235206" to="118672471#1"/>
    <trip id="motorcycle190" type="motorcycle_motorcycle" depart="344.04" departLane="best" from="-118672495#0" to="302751283#2"/>
    <trip id="motorcycle191" type="motorcycle_motorcycle" depart="345.85" departLane="best" from="118672241#1" to="1280089210"/>
    <trip id="motorcycle192" type="motorcycle_motorcycle" depart="347.66" departLane="best" from="118672487#1" to="118555831#11"/>
    <trip id="motorcycle193" type="motorcycle_motorcycle" depart="349.47" departLane="best" from="295842845#3" to="302756236#8"/>
    <trip id="motorcycle194" type="motorcycle_motorcycle" depart="351.28" departLane="best" from="-118672349#5" to="-697028016#7"/>
    <trip id="motorcycle195" type="motorcycle_motorcycle" depart="353.09" departLane="best" from="-118672470#1" to="695838784#4"/>
    <trip id="motorcycle196" type="motorcycle_motorcycle" depart="354.90" departLane="best" from="118672270#1" to="-118672241#4"/>
    <trip id="motorcycle197" type="motorcycle_motorcycle" depart="356.71" departLane="best" from="-258076350" to="658076483#1"/>
    <trip id="motorcycle198" type="motorcycle_motorcycle" depart="358.52" departLane="best" from="-118555831#2" to="302765759#2"/>
    <trip id="motorcycle199" type="motorcycle_motorcycle" depart="360.34" departLane="best" from="118672501#0" to="697210392"/>
    <trip id="motorcycle200" type="motorcycle_motorcycle" depart="362.15" departLane="best" from="118672391#0" to="695749390"/>
    <trip id="motorcycle201" type="motorcycle_motorcycle" depart="363.96" departLane="best" from="673151165" to="118672453"/>
    <trip id="motorcycle202" type="motorcycle_motorcycle" depart="365.77" departLane="best" from="1385690808#1" to="118672270#1"/>
    <trip id="motorcycle203" type="motorcycle_motorcycle" depart="367.58" departLane="best" from="405966002" to="-118672349#4"/>
    <trip id="motorcycle204" type="motorcycle_motorcycle" depart="369.39" departLane="best" from="673195455#1" to="295853905"/>
    <trip id="motorcycle205" type="motorcycle_motorcycle" depart="371.20" departLane="best" from="118556995#5" to="-258076367"/>
    <trip id="motorcycle206" type="motorcycle_motorcycle" depart="373.01" departLane="best" from="-258076340" to="118672487#0"/>
    <trip id="motorcycle207" type="motorcycle_motorcycle" depart="374.82" departLane="best" from="295853906#1" to="118672312#1"/>
    <trip id="motorcycle208" type="motorcycle_motorcycle" depart="376.63" departLane="best" from="118672458#0" to="-295842845#5"/>
    <trip id="motorcycle209" type="motorcycle_motorcycle" depart="378.44" departLane="best" from="-118672290#4" to="-295853906#1"/>
    <trip id="motorcycle210" type="motorcycle_motorcycle" depart="380.25" departLane="best" from="-295853898#0" to="-372298257"/>
    <trip id="motorcycle211" type="motorcycle_motorcycle" depart="382.06" departLane="best" departSpeed="max" from="118672316#0" to="-118672391#0"/>
    <trip id="motorcycle212" type="motorcycle_motorcycle" depart="383.87" departLane="best" from="1280089211" to="-118672253#8"/>
    <trip id="motorcycle213" type="motorcycle_motorcycle" depart="385.69" departLane="best" departSpeed="max" from="-695749017" to="-118672349#0"/>
    <trip id="motorcycle214" type="motorcycle_motorcycle" depart="387.50" departLane="best" departSpeed="max" from="-696235206" to="-118672495#5"/>
    <trip id="motorcycle215" type="motorcycle_motorcycle" depart="389.31" departLane="best" from="-696463774#0" to="693819571#3"/>