<?xml version="1.0" encoding="UTF-8"?>

<!-- generated on 2025-05-15 12:55:08 by Eclipse SUMO netedit Version 1.22.0
-->

<routes xmlns:xsi="http://www.w3.org/2001/XMLSchema-instance" xsi:noNamespaceSchemaLocation="http://sumo.dlr.de/xsd/routes_file.xsd">
    <!-- VTypes -->
    <vType id="bike_bicycle" vClass="bicycle"/>
    <!-- Vehicles, persons and containers (sorted by depart) -->
    <trip id="bike0" type="bike_bicycle" depart="0.00" departLane="best" departSpeed="max" from="118672484#0" to="-118672230#0"/>
    <trip id="bike1" type="bike_bicycle" depart="1.22" departLane="best" from="-303011142#1" to="1381019928#1"/>
    <trip id="bike2" type="bike_bicycle" depart="2.43" departLane="best" from="295842845#5" to="1371895643#1"/>
    <trip id="bike3" type="bike_bicycle" depart="3.65" departLane="best" from="672811722" to="-118672330#2"/>
    <trip id="bike4" type="bike_bicycle" depart="4.87" departLane="best" departSpeed="max" from="-696235206" to="-118672230#4"/>
    <trip id="bike5" type="bike_bicycle" depart="6.08" departLane="best" from="258076338#1" to="118672270#0"/>
    <trip id="bike6" type="bike_bicycle" depart="7.30" departLane="best" from="118672230#1" to="-118672622#0"/>
    <trip id="bike7" type="bike_bicycle" depart="8.51" departLane="best" from="118672487#1" to="672811720#3"/>
    <trip id="bike8" type="bike_bicycle" depart="9.73" departLane="best" from="-258076340" to="118672433#6"/>
    <trip id="bike11" type="bike_bicycle" depart="13.38" departLane="best" from="-672811721#1" to="118672470#2"/>
    <trip id="bike12" type="bike_bicycle" depart="14.60" departLane="best" from="695496270#1" to="641433845#1"/>
    <trip id="bike13" type="bike_bicycle" depart="15.81" departLane="best" from="-118672349#6" to="-118672349#6"/>
    <trip id="bike14" type="bike_bicycle" depart="17.03" departLane="best" from="641403960#1" to="118672470#0"/>
    <trip id="bike16" type="bike_bicycle" depart="19.46" departLane="best" from="118672270#3" to="697210394"/>
    <trip id="bike17" type="bike_bicycle" depart="20.68" departLane="best" from="-693841066#1" to="-118672375#2"/>
    <trip id="bike18" type="bike_bicycle" depart="21.89" departLane="best" departSpeed="max" from="405965999" to="118672487#0"/>
    <trip id="bike19" type="bike_bicycle" depart="23.11" departLane="best" from="643248612#1" to="-118672432#0"/>
    <trip id="bike21" type="bike_bicycle" depart="25.54" departLane="best" departSpeed="max" from="-258076372" to="-303500262#1"/>
    <trip id="bike22" type="bike_bicycle" depart="26.76" departLane="best" from="-118672316#4" to="-258076352"/>
    <trip id="bike23" type="bike_bicycle" depart="27.98" departLane="best" from="-118672375#3" to="-303011136#2"/>
    <trip id="bike24" type="bike_bicycle" depart="29.19" departLane="best" from="-118672470#3" to="-672811721#3"/>
    <trip id="bike25" type="bike_bicycle" depart="30.41" departLane="best" from="-673151156#1" to="-1280089210"/>
    <trip id="bike27" type="bike_bicycle" depart="32.84" departLane="best" from="118672486#2" to="118672470#4"/>
    <trip id="bike29" type="bike_bicycle" depart="35.28" departLane="best" from="118672486#1" to="-673151163#0"/>
    <trip id="bike30" type="bike_bicycle" depart="36.49" departLane="best" from="828696688" to="-118672506#4"/>
    <trip id="bike31" type="bike_bicycle" depart="37.71" departLane="best" from="118672316#2" to="-258076338#1"/>
    <trip id="bike32" type="bike_bicycle" depart="38.92" departLane="best" from="641403959#0" to="305994987#2"/>
    <trip id="bike33" type="bike_bicycle" depart="40.14" departLane="best" departSpeed="max" from="-258076372" to="118672230#5"/>
    <trip id="bike38" type="bike_bicycle" depart="46.22" departLane="best" from="-676441605#2" to="118555831#4"/>
    <trip id="bike40" type="bike_bicycle" depart="48.66" departLane="best" from="118672330#2" to="-302763996#2"/>
    <trip id="bike42" type="bike_bicycle" depart="51.09" departLane="best" departSpeed="max" from="-695498644" to="-1369563720"/>
    <trip id="bike43" type="bike_bicycle" depart="52.30" departLane="best" from="895442884" to="118672270#4"/>
    <trip id="bike44" type="bike_bicycle" depart="53.52" departLane="best" from="-118672349#5" to="-118672253#1"/>
    <trip id="bike45" type="bike_bicycle" depart="54.74" departLane="best" departSpeed="max" from="-118672382#3" to="118672495#5"/>
    <trip id="bike48" type="bike_bicycle" depart="58.39" departLane="best" departSpeed="max" from="895441570" to="-118672316#3"/>
    <trip id="bike49" type="bike_bicycle" depart="59.60" departLane="best" from="696463774#1" to="-118672230#0"/>
    <trip id="bike50" type="bike_bicycle" depart="60.82" departLane="best" from="-118555831#7" to="302752531#0"/>
    <trip id="bike51" type="bike_bicycle" depart="62.04" departLane="best" departSpeed="max" from="1207652542" to="-118672349#2"/>
    <trip id="bike52" type="bike_bicycle" depart="63.25" departLane="best" departSpeed="max" from="-303011139" to="-118672506#5"/>
    <trip id="bike54" type="bike_bicycle" depart="65.68" departLane="best" from="-828696688" to="696463775"/>
    <trip id="bike55" type="bike_bicycle" depart="66.90" departLane="best" from="658076318#0" to="-302763996#2"/>
    <trip id="bike56" type="bike_bicycle" depart="68.12" departLane="best" from="118556995#7" to="-118672495#5"/>
    <trip id="bike57" type="bike_bicycle" depart="69.33" departLane="best" from="676441605#0" to="676441605#0"/>
    <trip id="bike58" type="bike_bicycle" depart="70.55" departLane="best" from="-641403957#1" to="-118672506#3"/>
    <trip id="bike59" type="bike_bicycle" depart="71.77" departLane="best" from="118672432#2" to="-118672470#0"/>
    <trip id="bike60" type="bike_bicycle" depart="72.98" departLane="best" from="302756236#4" to="-118672349#4"/>
    <trip id="bike62" type="bike_bicycle" depart="75.42" departLane="best" from="-118555831#0" to="641403957#0"/>
    <trip id="bike63" type="bike_bicycle" depart="76.63" departLane="best" from="118556995#3" to="695749017"/>
    <trip id="bike64" type="bike_bicycle" depart="77.85" departLane="best" from="658076483#0" to="-658076318#1"/>
    <trip id="bike65" type="bike_bicycle" depart="79.07" departLane="best" departSpeed="max" from="-641427732" to="-118672270#0"/>
    <trip id="bike67" type="bike_bicycle" depart="81.50" departLane="best" from="-118672349#1" to="118672241#1"/>
    <trip id="bike68" type="bike_bicycle" depart="82.71" departLane="best" from="-118672304#1" to="-303011140#1"/>
    <trip id="bike69" type="bike_bicycle" depart="83.93" departLane="best" from="302756236#7" to="-118672429"/>
    <trip id="bike70" type="bike_bicycle" depart="85.15" departLane="best" departSpeed="max" from="-908405489" to="-118672375#0"/>
    <trip id="bike72" type="bike_bicycle" depart="87.58" departLane="best" departSpeed="max" from="-696235206" to="1315633568"/>
    <trip id="bike75" type="bike_bicycle" depart="91.23" departLane="best" departSpeed="max" from="895441570" to="118672622#0"/>
    <trip id="bike76" type="bike_bicycle" depart="92.45" departLane="best" from="-697028016#11" to="118672304#0"/>
    <trip id="bike77" type="bike_bicycle" depart="93.66" departLane="best" from="-118672410" to="258076337"/>
    <trip id="bike78" type="bike_bicycle" depart="94.88" departLane="best" from="-658076318#1" to="118672433#6"/>
    <trip id="bike79" type="bike_bicycle" depart="96.09" departLane="best" from="-295842845#10" to="-1371895643#0"/>
    <trip id="bike80" type="bike_bicycle" depart="97.31" departLane="best" from="118672312#1" to="118672501#1"/>
    <trip id="bike81" type="bike_bicycle" depart="98.53" departLane="best" departSpeed="max" from="-258076372" to="695008820#0"/>
    <trip id="bike82" type="bike_bicycle" depart="99.74" departLane="best" from="641463545" to="-118672304#1"/>
    <trip id="bike83" type="bike_bicycle" depart="100.96" departLane="best" from="-295842845#7" to="1369563714"/>
    <trip id="bike84" type="bike_bicycle" depart="102.18" departLane="best" departSpeed="max" from="-1371895643#1" to="118672432#2"/>
    <trip id="bike85" type="bike_bicycle" depart="103.39" departLane="best" from="-693841066#3" to="118672391#1"/>
    <trip id="bike86" type="bike_bicycle" depart="104.61" departLane="best" departSpeed="max" from="-896407942" to="405966001#1"/>
    <trip id="bike87" type="bike_bicycle" depart="105.83" departLane="best" departSpeed="max" from="305994976" to="-118672506#5"/>
    <trip id="bike89" type="bike_bicycle" depart="108.26" departLane="best" departSpeed="max" from="-696235206" to="-118556995#0"/>
    <trip id="bike90" type="bike_bicycle" depart="109.47" departLane="best" departSpeed="max" from="295842845#0" to="1369563718"/>
    <trip id="bike91" type="bike_bicycle" depart="110.69" departLane="best" from="-697028016#7" to="-118672351"/>
    <trip id="bike94" type="bike_bicycle" depart="114.34" departLane="best" from="-118672508#1" to="-895442884"/>
    <trip id="bike95" type="bike_bicycle" depart="115.56" departLane="best" departSpeed="max" from="-696235206" to="-303011136#2"/>
    <trip id="bike97" type="bike_bicycle" depart="117.99" departLane="best" from="-697028016#6" to="673195454#1"/>
    <trip id="bike98" type="bike_bicycle" depart="119.21" departLane="best" from="118672312#3" to="-118672253#3"/>
    <trip id="bike99" type="bike_bicycle" depart="120.42" departLane="best" from="895482086" to="658076483#1"/>
    <trip id="bike100" type="bike_bicycle" depart="121.64" departLane="best" from="696257601#1" to="695745891"/>
    <trip id="bike102" type="bike_bicycle" depart="124.07" departLane="best" from="-118555831#5" to="1369563714"/>
    <trip id="bike103" type="bike_bicycle" depart="125.29" departLane="best" departSpeed="max" from="-695500802" to="-118672270#1"/>
    <trip id="bike104" type="bike_bicycle" depart="126.50" departLane="best" from="693841066#1" to="895453352"/>
    <trip id="bike106" type="bike_bicycle" depart="128.94" departLane="best" from="-828696689#0" to="-695635073"/>
    <trip id="bike107" type="bike_bicycle" depart="130.15" departLane="best" from="695496270#1" to="896407942"/>
    <trip id="bike108" type="bike_bicycle" depart="131.37" departLane="best" from="118672316#1" to="302751283#6"/>
    <trip id="bike109" type="bike_bicycle" depart="132.59" departLane="best" from="-118672470#3" to="-305994981"/>
    <trip id="bike110" type="bike_bicycle" depart="133.80" departLane="best" from="696257601#1" to="118672432#2"/>
    <trip id="bike111" type="bike_bicycle" depart="135.02" departLane="best" from="-118672290#3" to="302765758#0"/>
    <trip id="bike112" type="bike_bicycle" depart="136.24" departLane="best" from="-118672270#2" to="118672433#3"/>
    <trip id="bike113" type="bike_bicycle" depart="137.45" departLane="best" from="118672230#2" to="673151154#1"/>
    <trip id="bike115" type="bike_bicycle" depart="139.88" departLane="best" from="-118672316#4" to="-118672506#1"/>
    <trip id="bike116" type="bike_bicycle" depart="141.10" departLane="best" from="118672383#4" to="1369563719"/>
    <trip id="bike117" type="bike_bicycle" depart="142.32" departLane="best" from="295842845#4" to="-118672391#0"/>
    <trip id="bike119" type="bike_bicycle" depart="144.75" departLane="best" from="118672383#3" to="118672487#0"/>
    <trip id="bike120" type="bike_bicycle" depart="145.97" departLane="best" departSpeed="max" from="-696233973" to="118672433#3"/>
    <trip id="bike123" type="bike_bicycle" depart="149.62" departLane="best" from="-295842845#7" to="-676441607"/>
    <trip id="bike124" type="bike_bicycle" depart="150.83" departLane="best" from="118672510#0" to="305994983#1"/>
    <trip id="bike126" type="bike_bicycle" depart="153.26" departLane="best" from="-118672312#2" to="-118555831#3"/>
    <trip id="bike127" type="bike_bicycle" depart="154.48" departLane="best" from="895442884" to="896407942"/>
    <trip id="bike128" type="bike_bicycle" depart="155.70" departLane="best" from="-118672312#3" to="1369563714"/>
    <trip id="bike131" type="bike_bicycle" depart="159.35" departLane="best" from="-673151156#1" to="-118672470#4"/>
    <trip id="bike132" type="bike_bicycle" depart="160.56" departLane="best" from="-405966001#0" to="-295842845#6"/>
    <trip id="bike133" type="bike_bicycle" depart="161.78" departLane="best" from="118672433#1" to="895455357"/>
    <trip id="bike135" type="bike_bicycle" depart="164.21" departLane="best" departSpeed="max" from="305994987#0" to="-305994983#0"/>
    <trip id="bike137" type="bike_bicycle" depart="166.65" departLane="best" from="-118672433#5" to="-118672383#2"/>
    <trip id="bike138" type="bike_bicycle" depart="167.86" departLane="best" from="-118672382#2" to="118672375#3"/>
    <trip id="bike139" type="bike_bicycle" depart="169.08" departLane="best" from="-303011141" to="118672470#1"/>
    <trip id="bike140" type="bike_bicycle" depart="170.29" departLane="best" departSpeed="max" from="258076338#0" to="-1207652542"/>
    <trip id="bike141" type="bike_bicycle" depart="171.51" departLane="best" from="118672470#2" to="-302763996#3"/>
    <trip id="bike142" type="bike_bicycle" depart="172.73" departLane="best" from="118555831#8" to="695008820#0"/>
    <trip id="bike144" type="bike_bicycle" depart="175.16" departLane="best" departSpeed="max" from="-696235206" to="-303011136#2"/>
    <trip id="bike145" type="bike_bicycle" depart="176.38" departLane="best" from="-118555831#10" to="305994977"/>
    <trip id="bike146" type="bike_bicycle" depart="177.59" departLane="best" from="118672471#0" to="-302763996#0"/>
    <trip id="bike147" type="bike_bicycle" depart="178.81" departLane="best" from="295853898#0" to="-118672375#2"/>
    <trip id="bike148" type="bike_bicycle" depart="180.03" departLane="best" from="-696463774#1" to="118555831#5"/>
    <trip id="bike149" type="bike_bicycle" depart="181.24" departLane="best" from="-118672312#4" to="693833176"/>
    <trip id="bike150" type="bike_bicycle" depart="182.46" departLane="best" from="673195454#1" to="118672359#1"/>
    <trip id="bike151" type="bike_bicycle" depart="183.67" departLane="best" from="405966001#1" to="118672433#2"/>
    <trip id="bike152" type="bike_bicycle" depart="184.89" departLane="best" from="-118672458#3" to="-118672423#1"/>
    <trip id="bike153" type="bike_bicycle" depart="186.11" departLane="best" departSpeed="max" from="-641427732" to="694334209"/>
    <trip id="bike155" type="bike_bicycle" depart="188.54" departLane="best" from="-673151156#2" to="-1280089210"/>
    <trip id="bike156" type="bike_bicycle" depart="189.76" departLane="best" from="-302752531#2" to="-118672375#0"/>
    <trip id="bike158" type="bike_bicycle" depart="192.19" departLane="best" departSpeed="max" from="-695503940" to="118672487#1"/>
    <trip id="bike160" type="bike_bicycle" depart="194.62" departLane="best" from="-643248617#0" to="697211221"/>
    <trip id="bike162" type="bike_bicycle" depart="197.05" departLane="best" from="673151165" to="-302763996#2"/>
    <trip id="bike164" type="bike_bicycle" depart="199.49" departLane="best" from="303500262#1" to="675771884#1"/>
    <trip id="bike165" type="bike_bicycle" depart="200.70" departLane="best" departSpeed="max" from="305994981" to="-302765738#0"/>
    <trip id="bike166" type="bike_bicycle" depart="201.92" departLane="best" from="302765760#1" to="-118672375#5"/>
    <trip id="bike167" type="bike_bicycle" depart="203.14" departLane="best" from="657772383#1" to="673151156#3"/>
    <trip id="bike168" type="bike_bicycle" depart="204.35" departLane="best" from="-258076352" to="643248612#0"/>
    <trip id="bike169" type="bike_bicycle" depart="205.57" departLane="best" departSpeed="max" from="-895453352" to="-305994987#2"/>
    <trip id="bike171" type="bike_bicycle" depart="208.00" departLane="best" from="-118556995#7" to="118672241#3"/>
    <trip id="bike172" type="bike_bicycle" depart="209.22" departLane="best" from="-643248617#1" to="675771884#1"/>
    <trip id="bike173" type="bike_bicycle" depart="210.44" departLane="best" from="696257601#0" to="-303011140#0"/>
    <trip id="bike174" type="bike_bicycle" depart="211.65" departLane="best" departSpeed="max" from="118672484#0" to="-693841066#0"/>
    <trip id="bike175" type="bike_bicycle" depart="212.87" departLane="best" from="-697028016#3" to="118672349#1"/>
    <trip id="bike176" type="bike_bicycle" depart="214.08" departLane="best" from="693841066#9" to="-118672383#2"/>
    <trip id="bike177" type="bike_bicycle" depart="215.30" departLane="best" from="-696463774#1" to="-118672495#5"/>
    <trip id="bike178" type="bike_bicycle" depart="216.52" departLane="best" from="695635073" to="302763996#4"/>
    <trip id="bike180" type="bike_bicycle" depart="218.95" departLane="best" departSpeed="max" from="295842845#0" to="-405965999"/>
    <trip id="bike181" type="bike_bicycle" depart="220.17" departLane="best" from="118672432#0" to="-118672290#0"/>
    <trip id="bike182" type="bike_bicycle" depart="221.38" departLane="best" from="-693841066#3" to="118672432#0"/>
    <trip id="bike184" type="bike_bicycle" depart="223.82" departLane="best" from="-118555831#1" to="695745754"/>
    <trip id="bike186" type="bike_bicycle" depart="226.25" departLane="best" from="295853898#0" to="1369563716"/>
    <trip id="bike187" type="bike_bicycle" depart="227.46" departLane="best" from="-675771884#0" to="-118672304#0"/>
    <trip id="bike188" type="bike_bicycle" depart="228.68" departLane="best" from="118672506#2" to="-641403960#0"/>
    <trip id="bike189" type="bike_bicycle" depart="229.90" departLane="best" departSpeed="max" from="-641438981" to="-673151153#0"/>
    <trip id="bike190" type="bike_bicycle" depart="231.11" departLane="best" from="258076338#1" to="-305994983#1"/>
    <trip id="bike191" type="bike_bicycle" depart="232.33" departLane="best" departSpeed="max" from="-641427732" to="-693841066#5"/>
    <trip id="bike192" type="bike_bicycle" depart="233.55" departLane="best" departSpeed="max" from="-695500802" to="-305994981"/>
    <trip id="bike194" type="bike_bicycle" depart="235.98" departLane="best" from="694323222" to="1371895643#1"/>
    <trip id="bike195" type="bike_bicycle" depart="237.20" departLane="best" from="673151165" to="118672486#0"/>
    <trip id="bike196" type="bike_bicycle" depart="238.41" departLane="best" from="-641403959#0" to="118672369#1"/>
    <trip id="bike197" type="bike_bicycle" depart="239.63" departLane="best" from="-118555831#0" to="303500261#0"/>
    <trip id="bike198" type="bike_bicycle" depart="240.84" departLane="best" departSpeed="max" from="-696463775" to="-118672433#0"/>
    <trip id="bike200" type="bike_bicycle" depart="243.28" departLane="best" from="-697028016#5" to="1369563714"/>
    <trip id="bike201" type="bike_bicycle" depart="244.49" departLane="best" departSpeed="max" from="-896407942" to="694334211#1"/>
    <trip id="bike203" type="bike_bicycle" depart="246.93" departLane="best" from="-118672349#0" to="118672290#3"/>
    <trip id="bike204" type="bike_bicycle" depart="248.14" departLane="best" from="-118672470#1" to="-641433845#0"/>
    <trip id="bike205" type="bike_bicycle" depart="249.36" departLane="best" departSpeed="max" from="305994987#0" to="302765758#1"/>
    <trip id="bike207" type="bike_bicycle" depart="251.79" departLane="best" from="-118672622#2" to="-118556995#7"/>
    <trip id="bike208" type="bike_bicycle" depart="253.01" departLane="best" from="-295853906#0" to="118556995#7"/>
    <trip id="bike210" type="bike_bicycle" depart="255.44" departLane="best" departSpeed="max" from="-695749017" to="118672501#0"/>
    <trip id="bike211" type="bike_bicycle" depart="256.66" departLane="best" from="-118672617#0" to="295842845#10"/>
    <trip id="bike212" type="bike_bicycle" depart="257.87" departLane="best" from="118556995#2" to="-295842845#3"/>
    <trip id="bike217" type="bike_bicycle" depart="263.96" departLane="best" from="118672241#4" to="-118672253#3"/>
    <trip id="bike219" type="bike_bicycle" depart="266.39" departLane="best" from="828696689#1" to="641427732"/>
    <trip id="bike220" type="bike_bicycle" depart="267.61" departLane="best" from="118672506#4" to="895455357"/>
    <trip id="bike223" type="bike_bicycle" depart="271.25" departLane="best" from="258076338#1" to="118672270#0"/>
    <trip id="bike224" type="bike_bicycle" depart="272.47" departLane="best" departSpeed="max" from="405965999" to="118672369#1"/>
    <trip id="bike225" type="bike_bicycle" depart="273.69" departLane="best" from="673151156#1" to="302765740"/>
    <trip id="bike226" type="bike_bicycle" depart="274.90" departLane="best" departSpeed="max" from="-908405489" to="-302752531#2"/>
    <trip id="bike227" type="bike_bicycle" depart="276.12" departLane="best" from="-302752531#0" to="118672506#2"/>
    <trip id="bike228" type="bike_bicycle" depart="277.34" departLane="best" from="695496270#1" to="-118672312#1"/>
    <trip id="bike229" type="bike_bicycle" depart="278.55" departLane="best" from="118672458#1" to="302765760#1"/>
    <trip id="bike230" type="bike_bicycle" depart="279.77" departLane="best" from="118672316#2" to="-303011144"/>
    <trip id="bike232" type="bike_bicycle" depart="282.20" departLane="best" from="118672290#1" to="-118672433#4"/>
    <trip id="bike233" type="bike_bicycle" depart="283.42" departLane="best" from="295842845#12" to="258076372"/>
    <trip id="bike234" type="bike_bicycle" depart="284.63" departLane="best" departSpeed="max" from="1369563720" to="-118672290#0"/>
    <trip id="bike235" type="bike_bicycle" depart="285.85" departLane="best" departSpeed="max" from="-695503940" to="118672349#6"/>
    <trip id="bike236" type="bike_bicycle" depart="287.07" departLane="best" departSpeed="max" from="-695749017" to="1280089208#0"/>
    <trip id="bike237" type="bike_bicycle" depart="288.28" departLane="best" departSpeed="max" from="-696233973" to="695008820#0"/>
    <trip id="bike239" type="bike_bicycle" depart="290.72" departLane="best" from="641463541" to="303011144"/>
    <trip id="bike240" type="bike_bicycle" depart="291.93" departLane="best" from="-693841066#10" to="-118555831#2"/>
    <trip id="bike241" type="bike_bicycle" depart="293.15" departLane="best" departSpeed="max" from="-673151154#1" to="302765759#1"/>
    <trip id="bike243" type="bike_bicycle" depart="295.58" departLane="best" departSpeed="max" from="-696233973" to="302765758#0"/>
    <trip id="bike245" type="bike_bicycle" depart="298.02" departLane="best" from="-258076340" to="-1371895643#0"/>
    <trip id="bike246" type="bike_bicycle" depart="299.23" departLane="best" from="-697028016#1" to="118672230#3"/>
    <trip id="bike247" type="bike_bicycle" depart="300.45" departLane="best" from="658076318#0" to="-1381019928#1"/>
    <trip id="bike248" type="bike_bicycle" depart="301.66" departLane="best" departSpeed="max" from="-695500803" to="-118672484#4"/>
    <trip id="bike251" type="bike_bicycle" depart="305.31" departLane="best" from="-694334211#1" to="118672383#1"/>
    <trip id="bike252" type="bike_bicycle" depart="306.53" departLane="best" from="-118672230#1" to="118672508#0"/>
    <trip id="bike255" type="bike_bicycle" depart="310.18" departLane="best" departSpeed="max" from="-1369563716" to="-641403958"/>
    <trip id="bike256" type="bike_bicycle" depart="311.40" departLane="best" from="302756236#10" to="-673151161"/>
    <trip id="bike257" type="bike_bicycle" depart="312.61" departLane="best" from="302751283#5" to="-658076318#1"/>
    <trip id="bike259" type="bike_bicycle" depart="315.04" departLane="best" from="-118556995#3" to="-118672349#4"/>
    <trip id="bike262" type="bike_bicycle" depart="318.69" departLane="best" from="118672495#0" to="302765760#0"/>
    <trip id="bike263" type="bike_bicycle" depart="319.91" departLane="best" from="694334212" to="-118672622#0"/>
    <trip id="bike264" type="bike_bicycle" depart="321.13" departLane="best" from="-118556995#4" to="118672458#4"/>
    <trip id="bike265" type="bike_bicycle" depart="322.34" departLane="best" from="-118672432#1" to="1369563715"/>
    <trip id="bike266" type="bike_bicycle" depart="323.56" departLane="best" from="118672349#0" to="-1369563720"/>
    <trip id="bike267" type="bike_bicycle" depart="324.78" departLane="best" from="1369563715" to="303011152"/>
    <trip id="bike268" type="bike_bicycle" depart="325.99" departLane="best" from="-118672495#0" to="118672470#3"/>
    <trip id="bike269" type="bike_bicycle" depart="327.21" departLane="best" from="302751283#1" to="-118672383#1"/>
    <trip id="bike272" type="bike_bicycle" depart="330.86" departLane="best" from="-641433845#1" to="1371895643#1"/>
    <trip id="bike273" type="bike_bicycle" depart="332.07" departLane="best" from="695496271#0" to="-693833176"/>
    <trip id="bike274" type="bike_bicycle" depart="333.29" departLane="best" from="-258076337" to="-118672312#3"/>
    <trip id="bike276" type="bike_bicycle" depart="335.72" departLane="best" from="118672375#4" to="305994979"/>
    <trip id="bike278" type="bike_bicycle" depart="338.16" departLane="best" from="-118672410" to="895442884"/>
    <trip id="bike280" type="bike_bicycle" depart="340.59" departLane="best" from="-696463774#1" to="673151153#2"/>
    <trip id="bike281" type="bike_bicycle" depart="341.81" departLane="best" from="118672230#5" to="641463541"/>
    <trip id="bike284" type="bike_bicycle" depart="345.45" departLane="best" from="118672470#3" to="-657772383#2"/>
    <trip id="bike286" type="bike_bicycle" depart="347.89" departLane="best" from="295842845#3" to="697028016#6"/>
    <trip id="bike288" type="bike_bicycle" depart="350.32" departLane="best" from="118672290#0" to="118672238#1"/>
    <trip id="bike289" type="bike_bicycle" depart="351.54" departLane="best" from="697028016#0" to="302756236#6"/>
    <trip id="bike291" type="bike_bicycle" depart="353.97" departLane="best" departSpeed="max" from="405965999" to="-118672330#0"/>
    <trip id="bike293" type="bike_bicycle" depart="356.40" departLane="best" from="-895482086" to="118672471#0"/>
    <trip id="bike294" type="bike_bicycle" depart="357.62" departLane="best" from="-693841066#1" to="-118672230#3"/>
    <trip id="bike295" type="bike_bicycle" depart="358.83" departLane="best" from="641433845#0" to="-118672501#0"/>
    <trip id="bike296" type="bike_bicycle" depart="360.05" departLane="best" departSpeed="max" from="-1371895643#1" to="641403960#1"/>
    <trip id="bike298" type="bike_bicycle" depart="362.48" departLane="best" from="-1369563716" to="-302765759#2"/>
    <trip id="bike299" type="bike_bicycle" depart="363.70" departLane="best" from="-118555831#6" to="696257601#1"/>
    <trip id="bike300" type="bike_bicycle" depart="364.92" departLane="best" from="-118672349#1" to="302752531#0"/>
    <trip id="bike301" type="bike_bicycle" depart="366.13" departLane="best" from="-118555831#8" to="303011139"/>
    <trip id="bike303" type="bike_bicycle" depart="368.57" departLane="best" from="118556995#0" to="-641403958"/>
    <trip id="bike304" type="bike_bicycle" depart="369.78" departLane="best" from="-118672351" to="-1371895643#0"/>
    <trip id="bike305" type="bike_bicycle" depart="371.00" departLane="best" from="1282340720" to="-320528140#1"/>
    <trip id="bike308" type="bike_bicycle" depart="374.65" departLane="best" from="295853906#0" to="-641403960#0"/>
    <trip id="bike309" type="bike_bicycle" depart="375.86" departLane="best" from="1369563718" to="-302765756#1"/>
    <trip id="bike312" type="bike_bicycle" depart="379.51" departLane="best" from="-118672270#3" to="-303011142#1"/>
    <trip id="bike313" type="bike_bicycle" depart="380.73" departLane="best" from="-118672506#3" to="1369563719"/>
    <trip id="bike314" type="bike_bicycle" depart="381.95" departLane="best" from="-118555831#4" to="302752531#3"/>
    <trip id="bike315" type="bike_bicycle" depart="383.16" departLane="best" from="-697028016#10" to="-118672312#4"/>
    <trip id="bike316" type="bike_bicycle" depart="384.38" departLane="best" from="305994987#2" to="-118672369#1"/>
    <trip id="bike317" type="bike_bicycle" depart="385.59" departLane="best" from="-118672617#0" to="-258076338#0"/>
    <trip id="bike319" type="bike_bicycle" depart="388.03" departLane="best" from="-118672270#2" to="302765760#1"/>
    <trip id="bike320" type="bike_bicycle" depart="389.24" departLane="best" from="697020756" to="118672375#3"/>
    <trip id="bike322" type="bike_bicycle" depart="391.68" departLane="best" from="643248618#0" to="118672241#5"/>
    <trip id="bike324" type="bike_bicycle" depart="394.11" departLane="best" departSpeed="max" from="-896406507" to="697028016#9"/>
    <trip id="bike325" type="bike_bicycle" depart="395.33" departLane="best" from="-118672506#2" to="-118672253#4"/>
    <trip id="bike326" type="bike_bicycle" depart="396.54" departLane="best" departSpeed="max" from="694325798" to="118672230#2"/>
    <trip id="bike327" type="bike_bicycle" depart="397.76" departLane="best" from="320528140#1" to="-693841066#1"/>
    <trip id="bike328" type="bike_bicycle" depart="398.98" departLane="best" from="-118672312#3" to="-118672495#6"/>
    <trip id="bike330" type="bike_bicycle" depart="401.41" departLane="best" from="118672330#3" to="305994987#1"/>
    <trip id="bike331" type="bike_bicycle" depart="402.62" departLane="best" departSpeed="max" from="828696690" to="-118672383#4"/>
    <trip id="bike332" type="bike_bicycle" depart="403.84" departLane="best" from="302756236#5" to="118672470#2"/>
    <trip id="bike334" type="bike_bicycle" depart="406.27" departLane="best" from="118672253#1" to="895482086"/>
    <trip id="bike335" type="bike_bicycle" depart="407.49" departLane="best" from="-697028016#6" to="-118672230#0"/>
    <trip id="bike336" type="bike_bicycle" depart="408.71" departLane="best" from="828696688" to="-305994987#2"/>
    <trip id="bike337" type="bike_bicycle" depart="409.92" departLane="best" from="118672446#0" to="118672470#4"/>
    <trip id="bike338" type="bike_bicycle" depart="411.14" departLane="best" from="295842845#9" to="696257601#0"/>
    <trip id="bike339" type="bike_bicycle" depart="412.36" departLane="best" from="-1317865073" to="1315633568"/>