<?xml version="1.0" encoding="UTF-8"?>

<!-- generated on 2025-08-15 22:04:28 by Eclipse SUMO duarouter Version 1.24.0
<duarouterConfiguration xmlns:xsi="http://www.w3.org/2001/XMLSchema-instance" xsi:noNamespaceSchemaLocation="http://sumo.dlr.de/xsd/duarouterConfiguration.xsd">

    <input>
        <net-file value="osm.net.xml.gz"/>
        <route-files value="osm.res_bike.trips.xml"/>
    </input>

    <output>
        <output-file value="osm.res_bike.rou.xml"/>
    </output>

    <report>
        <ignore-errors value="true"/>
    </report>

</duarouterConfiguration>
-->

<routes xmlns:xsi="http://www.w3.org/2001/XMLSchema-instance" xsi:noNamespaceSchemaLocation="http://sumo.dlr.de/xsd/routes_file.xsd">
    <vType id="res_bike_int0_bicycle" vClass="bicycle"/>
    <vehicle id="res_bike_int00" type="res_bike_int0_bicycle" depart="0.00" departLane="best" departSpeed="max">
        <route edges="E31 E18.410"/>
    </vehicle>
    <vehicle id="res_bike_int01" type="res_bike_int0_bicycle" depart="97.30" departLane="best" departSpeed="max">
        <route edges="E22 E18.410"/>
    </vehicle>
    <vehicle id="res_bike_int02" type="res_bike_int0_bicycle" depart="194.59" departLane="best" departSpeed="max">
        <route edges="E31 E30.558"/>
    </vehicle>
    <vehicle id="res_bike_int03" type="res_bike_int0_bicycle" depart="291.89" departLane="best" departSpeed="max">
        <route edges="E31 E18.410"/>
    </vehicle>
    <vehicle id="res_bike_int04" type="res_bike_int0_bicycle" depart="389.19" departLane="best" departSpeed="max">
        <route edges="E22 E18.410"/>
    </vehicle>
    <vehicle id="res_bike_int05" type="res_bike_int0_bicycle" depart="486.49" departLane="best" departSpeed="max">
        <route edges="E22 E30.558"/>
    </vehicle>
    <vehicle id="res_bike_int06" type="res_bike_int0_bicycle" depart="583.78" departLane="best" departSpeed="max">
        <route edges="E22 E18.410"/>
    </vehicle>
    <vehicle id="res_bike_int07" type="res_bike_int0_bicycle" depart="681.08" departLane="best" departSpeed="max">
        <route edges="E31 E30.558"/>
    </vehicle>
    <vehicle id="res_bike_int08" type="res_bike_int0_bicycle" depart="778.38" departLane="best" departSpeed="max">
        <route edges="E22 E30.558"/>
    </vehicle>
    <vehicle id="res_bike_int09" type="res_bike_int0_bicycle" depart="875.68" departLane="best" departSpeed="max">
        <route edges="E31 E18.410"/>
    </vehicle>
    <vehicle id="res_bike_int010" type="res_bike_int0_bicycle" depart="972.97" departLane="best" departSpeed="max">
        <route edges="E31 E30.558"/>
    </vehicle>
    <vehicle id="res_bike_int011" type="res_bike_int0_bicycle" depart="1070.27" departLane="best" departSpeed="max">
        <route edges="E22 E18.410"/>
    </vehicle>
    <vehicle id="res_bike_int013" type="res_bike_int0_bicycle" depart="1264.86" departLane="best" departSpeed="max">
        <route edges="E22 E18.410"/>
    </vehicle>
    <vehicle id="res_bike_int014" type="res_bike_int0_bicycle" depart="1362.16" departLane="best" departSpeed="max">
        <route edges="E31 E30.558"/>
    </vehicle>
    <vehicle id="res_bike_int015" type="res_bike_int0_bicycle" depart="1459.46" departLane="best" departSpeed="max">
        <route edges="E31 E30.558"/>
    </vehicle>
    <vehicle id="res_bike_int016" type="res_bike_int0_bicycle" depart="1556.76" departLane="best" departSpeed="max">
        <route edges="E31 E31.622"/>
    </vehicle>
    <vehicle id="res_bike_int017" type="res_bike_int0_bicycle" depart="1654.05" departLane="best" departSpeed="max">
        <route edges="E22 E30.558"/>
    </vehicle>
    <vehicle id="res_bike_int018" type="res_bike_int0_bicycle" depart="1751.35" departLane="best" departSpeed="max">
        <route edges="E31 E30.558"/>
    </vehicle>
    <vehicle id="res_bike_int019" type="res_bike_int0_bicycle" depart="1848.65" departLane="best" departSpeed="max">
        <route edges="E31 E30.558"/>
    </vehicle>
    <vehicle id="res_bike_int020" type="res_bike_int0_bicycle" depart="1945.95" departLane="best" departSpeed="max">
        <route edges="E31 E18.410"/>
    </vehicle>
    <vehicle id="res_bike_int021" type="res_bike_int0_bicycle" depart="2043.24" departLane="best" departSpeed="max">
        <route edges="E22 E22.488"/>
    </vehicle>
    <vehicle id="res_bike_int022" type="res_bike_int0_bicycle" depart="2140.54" departLane="best" departSpeed="max">
        <route edges="E22 E18.410"/>
    </vehicle>
    <vehicle id="res_bike_int023" type="res_bike_int0_bicycle" depart="2237.84" departLane="best" departSpeed="max">
        <route edges="E22 E22.488"/>
    </vehicle>
    <vehicle id="res_bike_int025" type="res_bike_int0_bicycle" depart="2432.43" departLane="best" departSpeed="max">
        <route edges="E22 E18.410"/>
    </vehicle>
    <vehicle id="res_bike_int027" type="res_bike_int0_bicycle" depart="2627.03" departLane="best" departSpeed="max">
        <route edges="E31 E30.558"/>
    </vehicle>
    <vehicle id="res_bike_int028" type="res_bike_int0_bicycle" depart="2724.32" departLane="best" departSpeed="max">
        <route edges="E22 E30.558"/>
    </vehicle>
    <vehicle id="res_bike_int029" type="res_bike_int0_bicycle" depart="2821.62" departLane="best" departSpeed="max">
        <route edges="E22 E22.488"/>
    </vehicle>
    <vehicle id="res_bike_int030" type="res_bike_int0_bicycle" depart="2918.92" departLane="best" departSpeed="max">
        <route edges="E31 E30.558"/>
    </vehicle>
    <vehicle id="res_bike_int031" type="res_bike_int0_bicycle" depart="3016.22" departLane="best" departSpeed="max">
        <route edges="E31 E30.558"/>
    </vehicle>
    <vehicle id="res_bike_int032" type="res_bike_int0_bicycle" depart="3113.51" departLane="best" departSpeed="max">
        <route edges="E31 E31.622"/>
    </vehicle>
    <vehicle id="res_bike_int033" type="res_bike_int0_bicycle" depart="3210.81" departLane="best" departSpeed="max">
        <route edges="E22 E18.410"/>
    </vehicle>
    <vehicle id="res_bike_int034" type="res_bike_int0_bicycle" depart="3308.11" departLane="best" departSpeed="max">
        <route edges="E22 E22.488"/>
    </vehicle>
    <vType id="res_bike_int1_bicycle" vClass="bicycle"/>
    <vehicle id="res_bike_int10" type="res_bike_int1_bicycle" depart="3601.00" departLane="best" departSpeed="max">
        <route edges="E18 E18.410"/>
    </vehicle>
    <vehicle id="res_bike_int11" type="res_bike_int1_bicycle" depart="3648.36" departLane="best" departSpeed="max">
        <route edges="E18 E18.410"/>
    </vehicle>
    <vehicle id="res_bike_int12" type="res_bike_int1_bicycle" depart="3695.71" departLane="best" departSpeed="max">
        <route edges="E30 E30.558"/>
    </vehicle>
    <vehicle id="res_bike_int14" type="res_bike_int1_bicycle" depart="3790.42" departLane="best" departSpeed="max">
        <route edges="E18 E18.410"/>
    </vehicle>
    <vehicle id="res_bike_int16" type="res_bike_int1_bicycle" depart="3885.13" departLane="best" departSpeed="max">
        <route edges="E18 E18.410"/>
    </vehicle>
    <vehicle id="res_bike_int110" type="res_bike_int1_bicycle" depart="4074.55" departLane="best" departSpeed="max">
        <route edges="E30 E30.558"/>
    </vehicle>
    <vehicle id="res_bike_int111" type="res_bike_int1_bicycle" depart="4121.91" departLane="best" departSpeed="max">
        <route edges="E18 E18.410"/>
    </vehicle>
    <vehicle id="res_bike_int112" type="res_bike_int1_bicycle" depart="4169.26" departLane="best" departSpeed="max">
        <route edges="E30 E22.488"/>
    </vehicle>
    <vehicle id="res_bike_int113" type="res_bike_int1_bicycle" depart="4216.62" departLane="best" departSpeed="max">
        <route edges="E18 E18.410"/>
    </vehicle>
    <vehicle id="res_bike_int114" type="res_bike_int1_bicycle" depart="4263.97" departLane="best" departSpeed="max">
        <route edges="E30 E30.558"/>
    </vehicle>
    <vehicle id="res_bike_int115" type="res_bike_int1_bicycle" depart="4311.33" departLane="best" departSpeed="max">
        <route edges="E30 E30.558"/>
    </vehicle>
    <vehicle id="res_bike_int116" type="res_bike_int1_bicycle" depart="4358.68" departLane="best" departSpeed="max">
        <route edges="E18 E31.622"/>
    </vehicle>
    <vehicle id="res_bike_int118" type="res_bike_int1_bicycle" depart="4453.39" departLane="best" departSpeed="max">
        <route edges="E30 E30.558"/>
    </vehicle>
    <vehicle id="res_bike_int119" type="res_bike_int1_bicycle" depart="4500.75" departLane="best" departSpeed="max">
        <route edges="E30 E30.558"/>
    </vehicle>
    <vehicle id="res_bike_int121" type="res_bike_int1_bicycle" depart="4595.46" departLane="best" departSpeed="max">
        <route edges="E18 E22.488"/>
    </vehicle>
    <vehicle id="res_bike_int122" type="res_bike_int1_bicycle" depart="4642.82" departLane="best" departSpeed="max">
        <route edges="E18 E18.410"/>
    </vehicle>
    <vehicle id="res_bike_int123" type="res_bike_int1_bicycle" depart="4690.17" departLane="best" departSpeed="max">
        <route edges="E18 E22.488"/>
    </vehicle>
    <vehicle id="res_bike_int124" type="res_bike_int1_bicycle" depart="4737.53" departLane="best" departSpeed="max">
        <route edges="E18 E22.488"/>
    </vehicle>
    <vehicle id="res_bike_int125" type="res_bike_int1_bicycle" depart="4784.88" departLane="best" departSpeed="max">
        <route edges="E18 E18.410"/>
    </vehicle>
    <vehicle id="res_bike_int126" type="res_bike_int1_bicycle" depart="4832.24" departLane="best" departSpeed="max">
        <route edges="E18 E31.622"/>
    </vehicle>
    <vehicle id="res_bike_int129" type="res_bike_int1_bicycle" depart="4974.30" departLane="best" departSpeed="max">
        <route edges="E18 E22.488"/>
    </vehicle>
    <vehicle id="res_bike_int130" type="res_bike_int1_bicycle" depart="5021.66" departLane="best" departSpeed="max">
        <route edges="E30 E30.558"/>
    </vehicle>
    <vehicle id="res_bike_int132" type="res_bike_int1_bicycle" depart="5116.37" departLane="best" departSpeed="max">
        <route edges="E30 E31.622"/>
    </vehicle>
    <vehicle id="res_bike_int133" type="res_bike_int1_bicycle" depart="5163.72" departLane="best" departSpeed="max">
        <route edges="E18 E18.410"/>
    </vehicle>
    <vehicle id="res_bike_int134" type="res_bike_int1_bicycle" depart="5211.08" departLane="best" departSpeed="max">
        <route edges="E18 E22.488"/>
    </vehicle>
    <vehicle id="res_bike_int135" type="res_bike_int1_bicycle" depart="5258.43" departLane="best" departSpeed="max">
        <route edges="E18 E31.622"/>
    </vehicle>
    <vehicle id="res_bike_int136" type="res_bike_int1_bicycle" depart="5305.79" departLane="best" departSpeed="max">
        <route edges="E30 E22.488"/>
    </vehicle>
    <vehicle id="res_bike_int137" type="res_bike_int1_bicycle" depart="5353.14" departLane="best" departSpeed="max">
        <route edges="E18 E22.488"/>
    </vehicle>
    <vehicle id="res_bike_int138" type="res_bike_int1_bicycle" depart="5400.50" departLane="best" departSpeed="max">
        <route edges="E30 E22.488"/>
    </vehicle>
    <vehicle id="res_bike_int139" type="res_bike_int1_bicycle" depart="5447.86" departLane="best" departSpeed="max">
        <route edges="E18 E18.410"/>
    </vehicle>
    <vehicle id="res_bike_int140" type="res_bike_int1_bicycle" depart="5495.21" departLane="best" departSpeed="max">
        <route edges="E18 E22.488"/>
    </vehicle>
    <vehicle id="res_bike_int141" type="res_bike_int1_bicycle" depart="5542.57" departLane="best" departSpeed="max">
        <route edges="E18 E31.622"/>
    </vehicle>
    <vehicle id="res_bike_int142" type="res_bike_int1_bicycle" depart="5589.92" departLane="best" departSpeed="max">
        <route edges="E18 E18.410"/>
    </vehicle>
    <vehicle id="res_bike_int143" type="res_bike_int1_bicycle" depart="5637.28" departLane="best" departSpeed="max">
        <route edges="E30 E30.558"/>
    </vehicle>
    <vehicle id="res_bike_int144" type="res_bike_int1_bicycle" depart="5684.63" departLane="best" departSpeed="max">
        <route edges="E18 E18.410"/>
    </vehicle>
    <vehicle id="res_bike_int146" type="res_bike_int1_bicycle" depart="5779.34" departLane="best" departSpeed="max">
        <route edges="E30 E22.488"/>
    </vehicle>
    <vehicle id="res_bike_int147" type="res_bike_int1_bicycle" depart="5826.70" departLane="best" departSpeed="max">
        <route edges="E18 E22.488"/>
    </vehicle>
    <vehicle id="res_bike_int148" type="res_bike_int1_bicycle" depart="5874.05" departLane="best" departSpeed="max">
        <route edges="E30 E30.558"/>
    </vehicle>
    <vehicle id="res_bike_int149" type="res_bike_int1_bicycle" depart="5921.41" departLane="best" departSpeed="max">
        <route edges="E30 E31.622"/>
    </vehicle>
    <vehicle id="res_bike_int153" type="res_bike_int1_bicycle" depart="6110.83" departLane="best" departSpeed="max">
        <route edges="E18 E22.488"/>
    </vehicle>
    <vehicle id="res_bike_int154" type="res_bike_int1_bicycle" depart="6158.18" departLane="best" departSpeed="max">
        <route edges="E18 E31.622"/>
    </vehicle>
    <vehicle id="res_bike_int155" type="res_bike_int1_bicycle" depart="6205.54" departLane="best" departSpeed="max">
        <route edges="E30 E22.488"/>
    </vehicle>
    <vehicle id="res_bike_int156" type="res_bike_int1_bicycle" depart="6252.89" departLane="best" departSpeed="max">
        <route edges="E18 E18.410"/>
    </vehicle>
    <vehicle id="res_bike_int157" type="res_bike_int1_bicycle" depart="6300.25" departLane="best" departSpeed="max">
        <route edges="E30 E31.622"/>
    </vehicle>
    <vehicle id="res_bike_int159" type="res_bike_int1_bicycle" depart="6394.96" departLane="best" departSpeed="max">
        <route edges="E18 E18.410"/>
    </vehicle>
    <vehicle id="res_bike_int160" type="res_bike_int1_bicycle" depart="6442.32" departLane="best" departSpeed="max">
        <route edges="E30 E30.558"/>
    </vehicle>
    <vehicle id="res_bike_int161" type="res_bike_int1_bicycle" depart="6489.67" departLane="best" departSpeed="max">
        <route edges="E30 E30.558"/>
    </vehicle>
    <vehicle id="res_bike_int162" type="res_bike_int1_bicycle" depart="6537.03" departLane="best" departSpeed="max">
        <route edges="E18 E22.488"/>
    </vehicle>
    <vehicle id="res_bike_int163" type="res_bike_int1_bicycle" depart="6584.38" departLane="best" departSpeed="max">
        <route edges="E18 E31.622"/>
    </vehicle>
    <vehicle id="res_bike_int164" type="res_bike_int1_bicycle" depart="6631.74" departLane="best" departSpeed="max">
        <route edges="E30 E31.622"/>
    </vehicle>
    <vehicle id="res_bike_int165" type="res_bike_int1_bicycle" depart="6679.09" departLane="best" departSpeed="max">
        <route edges="E18 E18.410"/>
    </vehicle>
    <vehicle id="res_bike_int166" type="res_bike_int1_bicycle" depart="6726.45" departLane="best" departSpeed="max">
        <route edges="E30 E31.622"/>
    </vehicle>
    <vehicle id="res_bike_int167" type="res_bike_int1_bicycle" depart="6773.80" departLane="best" departSpeed="max">
        <route edges="E18 E22.488"/>
    </vehicle>
    <vehicle id="res_bike_int168" type="res_bike_int1_bicycle" depart="6821.16" departLane="best" departSpeed="max">
        <route edges="E18 E31.622"/>
    </vehicle>
    <vehicle id="res_bike_int171" type="res_bike_int1_bicycle" depart="6963.22" departLane="best" departSpeed="max">
        <route edges="E18 E31.622"/>
    </vehicle>
    <vehicle id="res_bike_int172" type="res_bike_int1_bicycle" depart="7010.58" departLane="best" departSpeed="max">
        <route edges="E18 E18.410"/>
    </vehicle>
    <vehicle id="res_bike_int174" type="res_bike_int1_bicycle" depart="7105.29" departLane="best" departSpeed="max">
        <route edges="E18 E22.488"/>
    </vehicle>
    <vehicle id="res_bike_int175" type="res_bike_int1_bicycle" depart="7152.64" departLane="best" departSpeed="max">
        <route edges="E30 E30.558"/>
    </vehicle>
</routes>
