<?xml version="1.0" encoding="UTF-8"?>

<!-- generated on 2025-08-19 23:13:34 by Eclipse SUMO duarouter Version 1.24.0
<duarouterConfiguration xmlns:xsi="http://www.w3.org/2001/XMLSchema-instance" xsi:noNamespaceSchemaLocation="http://sumo.dlr.de/xsd/duarouterConfiguration.xsd">

    <input>
        <net-file value="osm.net.xml.gz"/>
        <route-files value="osm.res_bike.trips.xml"/>
    </input>

    <output>
        <output-file value="osm.res_bike.rou.xml"/>
    </output>

    <report>
        <ignore-errors value="true"/>
    </report>

</duarouterConfiguration>
-->

<routes xmlns:xsi="http://www.w3.org/2001/XMLSchema-instance" xsi:noNamespaceSchemaLocation="http://sumo.dlr.de/xsd/routes_file.xsd">
    <vType id="res_bike_int0_bicycle" vClass="bicycle"/>
    <vehicle id="res_bike_int00" type="res_bike_int0_bicycle" depart="0.00" departLane="best" departSpeed="max">
        <route edges="E31 E18.410"/>
    </vehicle>
    <vehicle id="res_bike_int01" type="res_bike_int0_bicycle" depart="58.06" departLane="best" departSpeed="max">
        <route edges="E22 E18.410"/>
    </vehicle>
    <vehicle id="res_bike_int02" type="res_bike_int0_bicycle" depart="116.13" departLane="best" departSpeed="max">
        <route edges="E31 E30.558"/>
    </vehicle>
    <vehicle id="res_bike_int03" type="res_bike_int0_bicycle" depart="174.19" departLane="best" departSpeed="max">
        <route edges="E31 E18.410"/>
    </vehicle>
    <vehicle id="res_bike_int04" type="res_bike_int0_bicycle" depart="232.26" departLane="best" departSpeed="max">
        <route edges="E22 E18.410"/>
    </vehicle>
    <vehicle id="res_bike_int05" type="res_bike_int0_bicycle" depart="290.32" departLane="best" departSpeed="max">
        <route edges="E22 E30.558"/>
    </vehicle>
    <vehicle id="res_bike_int06" type="res_bike_int0_bicycle" depart="348.39" departLane="best" departSpeed="max">
        <route edges="E22 E18.410"/>
    </vehicle>
    <vehicle id="res_bike_int07" type="res_bike_int0_bicycle" depart="406.45" departLane="best" departSpeed="max">
        <route edges="E31 E30.558"/>
    </vehicle>
    <vehicle id="res_bike_int08" type="res_bike_int0_bicycle" depart="464.52" departLane="best" departSpeed="max">
        <route edges="E22 E30.558"/>
    </vehicle>
    <vehicle id="res_bike_int09" type="res_bike_int0_bicycle" depart="522.58" departLane="best" departSpeed="max">
        <route edges="E31 E18.410"/>
    </vehicle>
    <vehicle id="res_bike_int010" type="res_bike_int0_bicycle" depart="580.65" departLane="best" departSpeed="max">
        <route edges="E31 E30.558"/>
    </vehicle>
    <vehicle id="res_bike_int011" type="res_bike_int0_bicycle" depart="638.71" departLane="best" departSpeed="max">
        <route edges="E22 E18.410"/>
    </vehicle>
    <vehicle id="res_bike_int013" type="res_bike_int0_bicycle" depart="754.84" departLane="best" departSpeed="max">
        <route edges="E22 E18.410"/>
    </vehicle>
    <vehicle id="res_bike_int014" type="res_bike_int0_bicycle" depart="812.90" departLane="best" departSpeed="max">
        <route edges="E31 E30.558"/>
    </vehicle>
    <vehicle id="res_bike_int015" type="res_bike_int0_bicycle" depart="870.97" departLane="best" departSpeed="max">
        <route edges="E31 E30.558"/>
    </vehicle>
    <vehicle id="res_bike_int016" type="res_bike_int0_bicycle" depart="929.03" departLane="best" departSpeed="max">
        <route edges="E31 E31.622"/>
    </vehicle>
    <vehicle id="res_bike_int017" type="res_bike_int0_bicycle" depart="987.10" departLane="best" departSpeed="max">
        <route edges="E22 E30.558"/>
    </vehicle>
    <vehicle id="res_bike_int018" type="res_bike_int0_bicycle" depart="1045.16" departLane="best" departSpeed="max">
        <route edges="E31 E30.558"/>
    </vehicle>
    <vehicle id="res_bike_int019" type="res_bike_int0_bicycle" depart="1103.23" departLane="best" departSpeed="max">
        <route edges="E31 E30.558"/>
    </vehicle>
    <vehicle id="res_bike_int020" type="res_bike_int0_bicycle" depart="1161.29" departLane="best" departSpeed="max">
        <route edges="E31 E18.410"/>
    </vehicle>
    <vehicle id="res_bike_int021" type="res_bike_int0_bicycle" depart="1219.35" departLane="best" departSpeed="max">
        <route edges="E22 E22.488"/>
    </vehicle>
    <vehicle id="res_bike_int022" type="res_bike_int0_bicycle" depart="1277.42" departLane="best" departSpeed="max">
        <route edges="E22 E18.410"/>
    </vehicle>
    <vehicle id="res_bike_int023" type="res_bike_int0_bicycle" depart="1335.48" departLane="best" departSpeed="max">
        <route edges="E22 E22.488"/>
    </vehicle>
    <vehicle id="res_bike_int025" type="res_bike_int0_bicycle" depart="1451.61" departLane="best" departSpeed="max">
        <route edges="E22 E18.410"/>
    </vehicle>
    <vehicle id="res_bike_int027" type="res_bike_int0_bicycle" depart="1567.74" departLane="best" departSpeed="max">
        <route edges="E31 E30.558"/>
    </vehicle>
    <vehicle id="res_bike_int028" type="res_bike_int0_bicycle" depart="1625.81" departLane="best" departSpeed="max">
        <route edges="E22 E30.558"/>
    </vehicle>
    <vehicle id="res_bike_int029" type="res_bike_int0_bicycle" depart="1683.87" departLane="best" departSpeed="max">
        <route edges="E22 E22.488"/>
    </vehicle>
    <vehicle id="res_bike_int030" type="res_bike_int0_bicycle" depart="1741.94" departLane="best" departSpeed="max">
        <route edges="E31 E30.558"/>
    </vehicle>
    <vehicle id="res_bike_int031" type="res_bike_int0_bicycle" depart="1800.00" departLane="best" departSpeed="max">
        <route edges="E31 E30.558"/>
    </vehicle>
    <vehicle id="res_bike_int032" type="res_bike_int0_bicycle" depart="1858.06" departLane="best" departSpeed="max">
        <route edges="E31 E31.622"/>
    </vehicle>
    <vehicle id="res_bike_int033" type="res_bike_int0_bicycle" depart="1916.13" departLane="best" departSpeed="max">
        <route edges="E22 E18.410"/>
    </vehicle>
    <vehicle id="res_bike_int034" type="res_bike_int0_bicycle" depart="1974.19" departLane="best" departSpeed="max">
        <route edges="E22 E22.488"/>
    </vehicle>
    <vehicle id="res_bike_int039" type="res_bike_int0_bicycle" depart="2264.52" departLane="best" departSpeed="max">
        <route edges="E22 E18.410"/>
    </vehicle>
    <vehicle id="res_bike_int041" type="res_bike_int0_bicycle" depart="2380.65" departLane="best" departSpeed="max">
        <route edges="E31 E31.622"/>
    </vehicle>
    <vehicle id="res_bike_int042" type="res_bike_int0_bicycle" depart="2438.71" departLane="best" departSpeed="max">
        <route edges="E22 E18.410"/>
    </vehicle>
    <vehicle id="res_bike_int043" type="res_bike_int0_bicycle" depart="2496.77" departLane="best" departSpeed="max">
        <route edges="E31 E30.558"/>
    </vehicle>
    <vehicle id="res_bike_int044" type="res_bike_int0_bicycle" depart="2554.84" departLane="best" departSpeed="max">
        <route edges="E22 E18.410"/>
    </vehicle>
    <vehicle id="res_bike_int045" type="res_bike_int0_bicycle" depart="2612.90" departLane="best" departSpeed="max">
        <route edges="E22 E30.558"/>
    </vehicle>
    <vehicle id="res_bike_int047" type="res_bike_int0_bicycle" depart="2729.03" departLane="best" departSpeed="max">
        <route edges="E22 E22.488"/>
    </vehicle>
    <vehicle id="res_bike_int048" type="res_bike_int0_bicycle" depart="2787.10" departLane="best" departSpeed="max">
        <route edges="E31 E30.558"/>
    </vehicle>
    <vehicle id="res_bike_int049" type="res_bike_int0_bicycle" depart="2845.16" departLane="best" departSpeed="max">
        <route edges="E31 E31.622"/>
    </vehicle>
    <vehicle id="res_bike_int050" type="res_bike_int0_bicycle" depart="2903.23" departLane="best" departSpeed="max">
        <route edges="E22 E30.558"/>
    </vehicle>
    <vehicle id="res_bike_int051" type="res_bike_int0_bicycle" depart="2961.29" departLane="best" departSpeed="max">
        <route edges="E31 E30.558"/>
    </vehicle>
    <vehicle id="res_bike_int052" type="res_bike_int0_bicycle" depart="3019.35" departLane="best" departSpeed="max">
        <route edges="E22 E30.558"/>
    </vehicle>
    <vehicle id="res_bike_int053" type="res_bike_int0_bicycle" depart="3077.42" departLane="best" departSpeed="max">
        <route edges="E22 E22.488"/>
    </vehicle>
    <vehicle id="res_bike_int056" type="res_bike_int0_bicycle" depart="3251.61" departLane="best" departSpeed="max">
        <route edges="E22 E18.410"/>
    </vehicle>
    <vehicle id="res_bike_int057" type="res_bike_int0_bicycle" depart="3309.68" departLane="best" departSpeed="max">
        <route edges="E31 E31.622"/>
    </vehicle>
    <vehicle id="res_bike_int058" type="res_bike_int0_bicycle" depart="3367.74" departLane="best" departSpeed="max">
        <route edges="E22 E30.558"/>
    </vehicle>
    <vehicle id="res_bike_int059" type="res_bike_int0_bicycle" depart="3425.81" departLane="best" departSpeed="max">
        <route edges="E31 E18.410"/>
    </vehicle>
    <vehicle id="res_bike_int060" type="res_bike_int0_bicycle" depart="3483.87" departLane="best" departSpeed="max">
        <route edges="E31 E30.558"/>
    </vehicle>
    <vehicle id="res_bike_int061" type="res_bike_int0_bicycle" depart="3541.94" departLane="best" departSpeed="max">
        <route edges="E31 E30.558"/>
    </vehicle>
    <vType id="res_bike_int1_bicycle" vClass="bicycle"/>
    <vehicle id="res_bike_int10" type="res_bike_int1_bicycle" depart="3601.00" departLane="best" departSpeed="max">
        <route edges="E18 E18.410"/>
    </vehicle>
    <vehicle id="res_bike_int11" type="res_bike_int1_bicycle" depart="3629.56" departLane="best" departSpeed="max">
        <route edges="E18 E18.410"/>
    </vehicle>
    <vehicle id="res_bike_int12" type="res_bike_int1_bicycle" depart="3658.13" departLane="best" departSpeed="max">
        <route edges="E30 E30.558"/>
    </vehicle>
    <vehicle id="res_bike_int14" type="res_bike_int1_bicycle" depart="3715.25" departLane="best" departSpeed="max">
        <route edges="E18 E18.410"/>
    </vehicle>
    <vehicle id="res_bike_int16" type="res_bike_int1_bicycle" depart="3772.38" departLane="best" departSpeed="max">
        <route edges="E18 E18.410"/>
    </vehicle>
    <vehicle id="res_bike_int110" type="res_bike_int1_bicycle" depart="3886.63" departLane="best" departSpeed="max">
        <route edges="E30 E30.558"/>
    </vehicle>
    <vehicle id="res_bike_int111" type="res_bike_int1_bicycle" depart="3915.20" departLane="best" departSpeed="max">
        <route edges="E18 E18.410"/>
    </vehicle>
    <vehicle id="res_bike_int112" type="res_bike_int1_bicycle" depart="3943.76" departLane="best" departSpeed="max">
        <route edges="E30 E22.488"/>
    </vehicle>
    <vehicle id="res_bike_int113" type="res_bike_int1_bicycle" depart="3972.33" departLane="best" departSpeed="max">
        <route edges="E18 E18.410"/>
    </vehicle>
    <vehicle id="res_bike_int114" type="res_bike_int1_bicycle" depart="4000.89" departLane="best" departSpeed="max">
        <route edges="E30 E30.558"/>
    </vehicle>
    <vehicle id="res_bike_int115" type="res_bike_int1_bicycle" depart="4029.45" departLane="best" departSpeed="max">
        <route edges="E30 E30.558"/>
    </vehicle>
    <vehicle id="res_bike_int116" type="res_bike_int1_bicycle" depart="4058.02" departLane="best" departSpeed="max">
        <route edges="E18 E31.622"/>
    </vehicle>
    <vehicle id="res_bike_int118" type="res_bike_int1_bicycle" depart="4115.14" departLane="best" departSpeed="max">
        <route edges="E30 E30.558"/>
    </vehicle>
    <vehicle id="res_bike_int119" type="res_bike_int1_bicycle" depart="4143.71" departLane="best" departSpeed="max">
        <route edges="E30 E30.558"/>
    </vehicle>
    <vehicle id="res_bike_int121" type="res_bike_int1_bicycle" depart="4200.83" departLane="best" departSpeed="max">
        <route edges="E18 E22.488"/>
    </vehicle>
    <vehicle id="res_bike_int122" type="res_bike_int1_bicycle" depart="4229.40" departLane="best" departSpeed="max">
        <route edges="E18 E18.410"/>
    </vehicle>
    <vehicle id="res_bike_int123" type="res_bike_int1_bicycle" depart="4257.96" departLane="best" departSpeed="max">
        <route edges="E18 E22.488"/>
    </vehicle>
    <vehicle id="res_bike_int124" type="res_bike_int1_bicycle" depart="4286.52" departLane="best" departSpeed="max">
        <route edges="E18 E22.488"/>
    </vehicle>
    <vehicle id="res_bike_int125" type="res_bike_int1_bicycle" depart="4315.09" departLane="best" departSpeed="max">
        <route edges="E18 E18.410"/>
    </vehicle>
    <vehicle id="res_bike_int126" type="res_bike_int1_bicycle" depart="4343.65" departLane="best" departSpeed="max">
        <route edges="E18 E31.622"/>
    </vehicle>
    <vehicle id="res_bike_int129" type="res_bike_int1_bicycle" depart="4429.34" departLane="best" departSpeed="max">
        <route edges="E18 E22.488"/>
    </vehicle>
    <vehicle id="res_bike_int130" type="res_bike_int1_bicycle" depart="4457.90" departLane="best" departSpeed="max">
        <route edges="E30 E30.558"/>
    </vehicle>
    <vehicle id="res_bike_int132" type="res_bike_int1_bicycle" depart="4515.03" departLane="best" departSpeed="max">
        <route edges="E30 E31.622"/>
    </vehicle>
    <vehicle id="res_bike_int133" type="res_bike_int1_bicycle" depart="4543.60" departLane="best" departSpeed="max">
        <route edges="E18 E18.410"/>
    </vehicle>
    <vehicle id="res_bike_int134" type="res_bike_int1_bicycle" depart="4572.16" departLane="best" departSpeed="max">
        <route edges="E18 E22.488"/>
    </vehicle>
    <vehicle id="res_bike_int135" type="res_bike_int1_bicycle" depart="4600.72" departLane="best" departSpeed="max">
        <route edges="E18 E31.622"/>
    </vehicle>
    <vehicle id="res_bike_int136" type="res_bike_int1_bicycle" depart="4629.29" departLane="best" departSpeed="max">
        <route edges="E30 E22.488"/>
    </vehicle>
    <vehicle id="res_bike_int137" type="res_bike_int1_bicycle" depart="4657.85" departLane="best" departSpeed="max">
        <route edges="E18 E22.488"/>
    </vehicle>
    <vehicle id="res_bike_int138" type="res_bike_int1_bicycle" depart="4686.41" departLane="best" departSpeed="max">
        <route edges="E30 E22.488"/>
    </vehicle>
    <vehicle id="res_bike_int139" type="res_bike_int1_bicycle" depart="4714.98" departLane="best" departSpeed="max">
        <route edges="E18 E18.410"/>
    </vehicle>
    <vehicle id="res_bike_int140" type="res_bike_int1_bicycle" depart="4743.54" departLane="best" departSpeed="max">
        <route edges="E18 E22.488"/>
    </vehicle>
    <vehicle id="res_bike_int141" type="res_bike_int1_bicycle" depart="4772.10" departLane="best" departSpeed="max">
        <route edges="E18 E31.622"/>
    </vehicle>
    <vehicle id="res_bike_int142" type="res_bike_int1_bicycle" depart="4800.67" departLane="best" departSpeed="max">
        <route edges="E18 E18.410"/>
    </vehicle>
    <vehicle id="res_bike_int143" type="res_bike_int1_bicycle" depart="4829.23" departLane="best" departSpeed="max">
        <route edges="E30 E30.558"/>
    </vehicle>
    <vehicle id="res_bike_int144" type="res_bike_int1_bicycle" depart="4857.79" departLane="best" departSpeed="max">
        <route edges="E18 E18.410"/>
    </vehicle>
    <vehicle id="res_bike_int146" type="res_bike_int1_bicycle" depart="4914.92" departLane="best" departSpeed="max">
        <route edges="E30 E22.488"/>
    </vehicle>
    <vehicle id="res_bike_int147" type="res_bike_int1_bicycle" depart="4943.48" departLane="best" departSpeed="max">
        <route edges="E18 E22.488"/>
    </vehicle>
    <vehicle id="res_bike_int148" type="res_bike_int1_bicycle" depart="4972.05" departLane="best" departSpeed="max">
        <route edges="E30 E30.558"/>
    </vehicle>
    <vehicle id="res_bike_int149" type="res_bike_int1_bicycle" depart="5000.61" departLane="best" departSpeed="max">
        <route edges="E30 E31.622"/>
    </vehicle>
    <vehicle id="res_bike_int153" type="res_bike_int1_bicycle" depart="5114.87" departLane="best" departSpeed="max">
        <route edges="E18 E22.488"/>
    </vehicle>
    <vehicle id="res_bike_int154" type="res_bike_int1_bicycle" depart="5143.43" departLane="best" departSpeed="max">
        <route edges="E18 E31.622"/>
    </vehicle>
    <vehicle id="res_bike_int155" type="res_bike_int1_bicycle" depart="5171.99" departLane="best" departSpeed="max">
        <route edges="E30 E22.488"/>
    </vehicle>
    <vehicle id="res_bike_int156" type="res_bike_int1_bicycle" depart="5200.56" departLane="best" departSpeed="max">
        <route edges="E18 E18.410"/>
    </vehicle>
    <vehicle id="res_bike_int157" type="res_bike_int1_bicycle" depart="5229.12" departLane="best" departSpeed="max">
        <route edges="E30 E31.622"/>
    </vehicle>
    <vehicle id="res_bike_int159" type="res_bike_int1_bicycle" depart="5286.25" departLane="best" departSpeed="max">
        <route edges="E18 E18.410"/>
    </vehicle>
    <vehicle id="res_bike_int160" type="res_bike_int1_bicycle" depart="5314.81" departLane="best" departSpeed="max">
        <route edges="E30 E30.558"/>
    </vehicle>
    <vehicle id="res_bike_int161" type="res_bike_int1_bicycle" depart="5343.37" departLane="best" departSpeed="max">
        <route edges="E30 E30.558"/>
    </vehicle>
    <vehicle id="res_bike_int162" type="res_bike_int1_bicycle" depart="5371.94" departLane="best" departSpeed="max">
        <route edges="E18 E22.488"/>
    </vehicle>
    <vehicle id="res_bike_int163" type="res_bike_int1_bicycle" depart="5400.50" departLane="best" departSpeed="max">
        <route edges="E18 E31.622"/>
    </vehicle>
    <vehicle id="res_bike_int164" type="res_bike_int1_bicycle" depart="5429.06" departLane="best" departSpeed="max">
        <route edges="E30 E31.622"/>
    </vehicle>
    <vehicle id="res_bike_int165" type="res_bike_int1_bicycle" depart="5457.63" departLane="best" departSpeed="max">
        <route edges="E18 E18.410"/>
    </vehicle>
    <vehicle id="res_bike_int166" type="res_bike_int1_bicycle" depart="5486.19" departLane="best" departSpeed="max">
        <route edges="E30 E31.622"/>
    </vehicle>
    <vehicle id="res_bike_int167" type="res_bike_int1_bicycle" depart="5514.75" departLane="best" departSpeed="max">
        <route edges="E18 E22.488"/>
    </vehicle>
    <vehicle id="res_bike_int168" type="res_bike_int1_bicycle" depart="5543.32" departLane="best" departSpeed="max">
        <route edges="E18 E31.622"/>
    </vehicle>
    <vehicle id="res_bike_int171" type="res_bike_int1_bicycle" depart="5629.01" departLane="best" departSpeed="max">
        <route edges="E18 E31.622"/>
    </vehicle>
    <vehicle id="res_bike_int172" type="res_bike_int1_bicycle" depart="5657.57" departLane="best" departSpeed="max">
        <route edges="E18 E18.410"/>
    </vehicle>
    <vehicle id="res_bike_int174" type="res_bike_int1_bicycle" depart="5714.70" departLane="best" departSpeed="max">
        <route edges="E18 E22.488"/>
    </vehicle>
    <vehicle id="res_bike_int175" type="res_bike_int1_bicycle" depart="5743.26" departLane="best" departSpeed="max">
        <route edges="E30 E30.558"/>
    </vehicle>
    <vehicle id="res_bike_int177" type="res_bike_int1_bicycle" depart="5800.39" departLane="best" departSpeed="max">
        <route edges="E18 E18.410"/>
    </vehicle>
    <vehicle id="res_bike_int179" type="res_bike_int1_bicycle" depart="5857.52" departLane="best" departSpeed="max">
        <route edges="E18 E18.410"/>
    </vehicle>
    <vehicle id="res_bike_int181" type="res_bike_int1_bicycle" depart="5914.64" departLane="best" departSpeed="max">
        <route edges="E18 E31.622"/>
    </vehicle>
    <vehicle id="res_bike_int184" type="res_bike_int1_bicycle" depart="6000.33" departLane="best" departSpeed="max">
        <route edges="E18 E18.410"/>
    </vehicle>
    <vehicle id="res_bike_int185" type="res_bike_int1_bicycle" depart="6028.90" departLane="best" departSpeed="max">
        <route edges="E30 E30.558"/>
    </vehicle>
    <vehicle id="res_bike_int186" type="res_bike_int1_bicycle" depart="6057.46" departLane="best" departSpeed="max">
        <route edges="E18 E31.622"/>
    </vehicle>
    <vehicle id="res_bike_int188" type="res_bike_int1_bicycle" depart="6114.59" departLane="best" departSpeed="max">
        <route edges="E18 E22.488"/>
    </vehicle>
    <vehicle id="res_bike_int189" type="res_bike_int1_bicycle" depart="6143.15" departLane="best" departSpeed="max">
        <route edges="E18 E22.488"/>
    </vehicle>
    <vehicle id="res_bike_int190" type="res_bike_int1_bicycle" depart="6171.71" departLane="best" departSpeed="max">
        <route edges="E30 E30.558"/>
    </vehicle>
    <vehicle id="res_bike_int192" type="res_bike_int1_bicycle" depart="6228.84" departLane="best" departSpeed="max">
        <route edges="E18 E22.488"/>
    </vehicle>
    <vehicle id="res_bike_int194" type="res_bike_int1_bicycle" depart="6285.97" departLane="best" departSpeed="max">
        <route edges="E18 E22.488"/>
    </vehicle>
    <vehicle id="res_bike_int195" type="res_bike_int1_bicycle" depart="6314.53" departLane="best" departSpeed="max">
        <route edges="E18 E22.488"/>
    </vehicle>
    <vehicle id="res_bike_int196" type="res_bike_int1_bicycle" depart="6343.10" departLane="best" departSpeed="max">
        <route edges="E18 E31.622"/>
    </vehicle>
    <vehicle id="res_bike_int197" type="res_bike_int1_bicycle" depart="6371.66" departLane="best" departSpeed="max">
        <route edges="E18 E31.622"/>
    </vehicle>
    <vehicle id="res_bike_int198" type="res_bike_int1_bicycle" depart="6400.22" departLane="best" departSpeed="max">
        <route edges="E18 E18.410"/>
    </vehicle>
    <vehicle id="res_bike_int199" type="res_bike_int1_bicycle" depart="6428.79" departLane="best" departSpeed="max">
        <route edges="E30 E31.622"/>
    </vehicle>
    <vehicle id="res_bike_int1100" type="res_bike_int1_bicycle" depart="6457.35" departLane="best" departSpeed="max">
        <route edges="E30 E31.622"/>
    </vehicle>
    <vehicle id="res_bike_int1102" type="res_bike_int1_bicycle" depart="6514.48" departLane="best" departSpeed="max">
        <route edges="E18 E18.410"/>
    </vehicle>
    <vehicle id="res_bike_int1103" type="res_bike_int1_bicycle" depart="6543.04" departLane="best" departSpeed="max">
        <route edges="E18 E18.410"/>
    </vehicle>
    <vehicle id="res_bike_int1104" type="res_bike_int1_bicycle" depart="6571.60" departLane="best" departSpeed="max">
        <route edges="E18 E31.622"/>
    </vehicle>
    <vehicle id="res_bike_int1105" type="res_bike_int1_bicycle" depart="6600.17" departLane="best" departSpeed="max">
        <route edges="E18 E31.622"/>
    </vehicle>
    <vehicle id="res_bike_int1106" type="res_bike_int1_bicycle" depart="6628.73" departLane="best" departSpeed="max">
        <route edges="E18 E22.488"/>
    </vehicle>
    <vehicle id="res_bike_int1107" type="res_bike_int1_bicycle" depart="6657.29" departLane="best" departSpeed="max">
        <route edges="E30 E31.622"/>
    </vehicle>
    <vehicle id="res_bike_int1109" type="res_bike_int1_bicycle" depart="6714.42" departLane="best" departSpeed="max">
        <route edges="E18 E22.488"/>
    </vehicle>
    <vehicle id="res_bike_int1110" type="res_bike_int1_bicycle" depart="6742.98" departLane="best" departSpeed="max">
        <route edges="E30 E30.558"/>
    </vehicle>
    <vehicle id="res_bike_int1113" type="res_bike_int1_bicycle" depart="6828.67" departLane="best" departSpeed="max">
        <route edges="E18 E31.622"/>
    </vehicle>
    <vehicle id="res_bike_int1114" type="res_bike_int1_bicycle" depart="6857.24" departLane="best" departSpeed="max">
        <route edges="E18 E31.622"/>
    </vehicle>
    <vehicle id="res_bike_int1115" type="res_bike_int1_bicycle" depart="6885.80" departLane="best" departSpeed="max">
        <route edges="E18 E18.410"/>
    </vehicle>
    <vehicle id="res_bike_int1117" type="res_bike_int1_bicycle" depart="6942.93" departLane="best" departSpeed="max">
        <route edges="E18 E18.410"/>
    </vehicle>
    <vehicle id="res_bike_int1121" type="res_bike_int1_bicycle" depart="7057.18" departLane="best" departSpeed="max">
        <route edges="E18 E31.622"/>
    </vehicle>
    <vehicle id="res_bike_int1123" type="res_bike_int1_bicycle" depart="7114.31" departLane="best" departSpeed="max">
        <route edges="E18 E22.488"/>
    </vehicle>
    <vehicle id="res_bike_int1124" type="res_bike_int1_bicycle" depart="7142.87" departLane="best" departSpeed="max">
        <route edges="E18 E22.488"/>
    </vehicle>
    <vehicle id="res_bike_int1125" type="res_bike_int1_bicycle" depart="7171.44" departLane="best" departSpeed="max">
        <route edges="E18 E31.622"/>
    </vehicle>
</routes>
